[Format]      =  4.0
[Frequency]   =  0
[Precision]   =  1e-008
[MinAngle]    =  30
[Depth]       =  1.635130595832468
[LengthUnits] =  meters
[ProblemType] =  planar
[Coordinates] =  cartesian
[ACSolver]    =  0
[Comment]     =  "Add comments here."
[PointProps]   = 0
[BdryProps]   = 9
  <BeginBdry>
    <BdryName> = "Pros A"
    <BdryType> = 0
    <A_0> = 0
    <A_1> = 0
    <A_2> = 0
    <Phi> = 90
    <c0> = 0
    <c0i> = 0
    <c1> = 0
    <c1i> = 0
    <Mu_ssd> = 0
    <Sigma_ssd> = 0
  <EndBdry>
  <BeginBdry>
    <BdryName> = "Periodic 1"
    <BdryType> = 4
    <A_0> = 0
    <A_1> = 0
    <A_2> = 0
    <Phi> = 0
    <c0> = 0
    <c0i> = 0
    <c1> = 0
    <c1i> = 0
    <Mu_ssd> = 0
    <Sigma_ssd> = 0
  <EndBdry>
  <BeginBdry>
    <BdryName> = "Periodic 2"
    <BdryType> = 4
    <A_0> = 0
    <A_1> = 0
    <A_2> = 0
    <Phi> = 0
    <c0> = 0
    <c0i> = 0
    <c1> = 0
    <c1i> = 0
    <Mu_ssd> = 0
    <Sigma_ssd> = 0
  <EndBdry>
  <BeginBdry>
    <BdryName> = "Periodic 3"
    <BdryType> = 4
    <A_0> = 0
    <A_1> = 0
    <A_2> = 0
    <Phi> = 0
    <c0> = 0
    <c0i> = 0
    <c1> = 0
    <c1i> = 0
    <Mu_ssd> = 0
    <Sigma_ssd> = 0
  <EndBdry>
  <BeginBdry>
    <BdryName> = "Periodic 4"
    <BdryType> = 4
    <A_0> = 0
    <A_1> = 0
    <A_2> = 0
    <Phi> = 0
    <c0> = 0
    <c0i> = 0
    <c1> = 0
    <c1i> = 0
    <Mu_ssd> = 0
    <Sigma_ssd> = 0
  <EndBdry>
  <BeginBdry>
    <BdryName> = "Periodic 5"
    <BdryType> = 4
    <A_0> = 0
    <A_1> = 0
    <A_2> = 0
    <Phi> = 0
    <c0> = 0
    <c0i> = 0
    <c1> = 0
    <c1i> = 0
    <Mu_ssd> = 0
    <Sigma_ssd> = 0
  <EndBdry>
  <BeginBdry>
    <BdryName> = "Periodic 6"
    <BdryType> = 4
    <A_0> = 0
    <A_1> = 0
    <A_2> = 0
    <Phi> = 0
    <c0> = 0
    <c0i> = 0
    <c1> = 0
    <c1i> = 0
    <Mu_ssd> = 0
    <Sigma_ssd> = 0
  <EndBdry>
  <BeginBdry>
    <BdryName> = "Periodic 7"
    <BdryType> = 4
    <A_0> = 0
    <A_1> = 0
    <A_2> = 0
    <Phi> = 0
    <c0> = 0
    <c0i> = 0
    <c1> = 0
    <c1i> = 0
    <Mu_ssd> = 0
    <Sigma_ssd> = 0
  <EndBdry>
  <BeginBdry>
    <BdryName> = "Periodic 8"
    <BdryType> = 4
    <A_0> = 0
    <A_1> = 0
    <A_2> = 0
    <Phi> = 0
    <c0> = 0
    <c0i> = 0
    <c1> = 0
    <c1i> = 0
    <Mu_ssd> = 0
    <Sigma_ssd> = 0
  <EndBdry>
[BlockProps]  = 4
  <BeginBlock>
    <BlockName> = "1117 Steel"
    <Mu_x> = 1777
    <Mu_y> = 1777
    <H_c> = 0
    <H_cAngle> = 0
    <J_re> = 0
    <J_im> = 0
    <Sigma> = 0
    <d_lam> = 0
    <Phi_h> = 0
    <Phi_hx> = 0
    <Phi_hy> = 0
    <LamType> = 1
    <LamFill> = 1
    <NStrands> = 0
    <WireD> = 0
    <BHPoints> = 9
      0	0
      0.70040000000000002	238.73249999999999
      1.351	795.77499999999998
      1.6240000000000001	3183.0999999999999
      1.77	7957.75
      2	31831
      2.1299999999999999	79577.5
      2.25	159155
      2.46	318310
  <EndBlock>
  <BeginBlock>
    <BlockName> = "NdFeB 40 MGOe"
    <Mu_x> = 1.0489999999999999
    <Mu_y> = 1.0489999999999999
    <H_c> = 979000
    <H_cAngle> = 0
    <J_re> = 0
    <J_im> = 0
    <Sigma> = 0.66700000000000004
    <d_lam> = 0
    <Phi_h> = 0
    <Phi_hx> = 0
    <Phi_hy> = 0
    <LamType> = 0
    <LamFill> = 1
    <NStrands> = 0
    <WireD> = 0
    <BHPoints> = 0
  <EndBlock>
  <BeginBlock>
    <BlockName> = "Air"
    <Mu_x> = 1
    <Mu_y> = 1
    <H_c> = 0
    <H_cAngle> = 0
    <J_re> = 0
    <J_im> = 0
    <Sigma> = 0
    <d_lam> = 0
    <Phi_h> = 0
    <Phi_hx> = 0
    <Phi_hy> = 0
    <LamType> = 0
    <LamFill> = 1
    <NStrands> = 0
    <WireD> = 0
    <BHPoints> = 0
  <EndBlock>
  <BeginBlock>
    <BlockName> = "wire"
    <Mu_x> = 1
    <Mu_y> = 1
    <H_c> = 0
    <H_cAngle> = 0
    <J_re> = 0
    <J_im> = 0
    <Sigma> = 58.823529411764703
    <d_lam> = 0
    <Phi_h> = 0
    <Phi_hx> = 0
    <Phi_hy> = 0
    <LamType> = 3
    <LamFill> = 1
    <NStrands> = 1
    <WireD> = 0.74416819751743335
    <BHPoints> = 0
  <EndBlock>
[CircuitProps]  = 3
  <BeginCircuit>
    <CircuitName> = "Coil A"
    <TotalAmps_re> = 0
    <TotalAmps_im> = 0
    <CircuitType> = 1
  <EndCircuit>
  <BeginCircuit>
    <CircuitName> = "Coil C"
    <TotalAmps_re> = 4.3494274780126675e-008
    <TotalAmps_im> = 0
    <CircuitType> = 1
  <EndCircuit>
  <BeginCircuit>
    <CircuitName> = "Coil B"
    <TotalAmps_re> = 0
    <TotalAmps_im> = 0
    <CircuitType> = 1
  <EndCircuit>
[NumBlockLabels] = 21
0.20330598851835432	0.20540293473960494	3	0.030339750073314478	0	0	0	1	0
0.0093774895008016043	0.20540293473960494	1	0.0030339750073314479	0	0	1	1	0
0.14817754017583959	0.20540293473960494	1	0.0030339750073314479	0	0	3	1	0
0.029696769807661311	0.034233822456600824	4	0.0030339750073314479	1	0	11	2181	0
0.051580351419777515	0.23963675719620575	4	0.0030339750073314479	1	0	12	-2181	0
0.029696769807661311	0.10270146736980247	4	0.0030339750073314479	2	0	31	-2181	0
0.051580351419777515	0.30810440210940743	4	0.0030339750073314479	2	0	32	2181	0
0.029696769807661311	0.17116911228300413	4	0.0030339750073314479	3	0	21	2181	0
0.051580351419777515	0.37657204702260905	4	0.0030339750073314479	3	0	22	-2181	0
0.051580351419777515	0.034233822456600824	3	0.0030339750073314479	0	0	0	1	0
0.029696769807661311	0.23963675719620575	3	0.0030339750073314479	0	0	0	1	0
0.051580351419777515	0.10270146736980247	3	0.0030339750073314479	0	0	0	1	0
0.029696769807661311	0.30810440210940743	3	0.0030339750073314479	0	0	0	1	0
0.051580351419777515	0.17116911228300413	3	0.0030339750073314479	0	0	0	1	0
0.029696769807661311	0.37657204702260905	3	0.0030339750073314479	0	0	0	1	0
0.099561894048895289	0.39728279178704706	3	0.0030339750073314479	0	180	3	1	0
0.099561894048895289	0.040910135657443447	3	0.0030339750073314479	0	180	3	1	0
0.099561894048895289	0.2327899927048856	3	0.0030339750073314479	0	0	3	1	0
0.091864001658832101	0.13008852533508311	3	0.0030339750073314479	0	0	0	1	0
0.31593306555236927	0.20540293473960494	3	0.045509625109971717	0	0	2	1	0
0.51303045036189543	0.20540293473960494	3	-1	0	0	0	1	0
[NumPoints] = 60
0.018754979001603209	0.0083074143815839233	0	0
0.040638560613719413	0.0083074143815839233	0	0
0.062522142225835617	0.0083074143815839233	0	0
0.018754979001603209	0.060160230531617724	0	0
0.040638560613719413	0.060160230531617724	0	0
0.062522142225835617	0.060160230531617724	0	0
0.018754979001603209	0.076775059294785564	0	0
0.040638560613719413	0.076775059294785564	0	0
0.062522142225835617	0.076775059294785564	0	0
0.018754979001603223	0.19709552035802103	0	0
0.040638560613719399	0.19709552035802103	0	0
0.062522142225835631	0.19709552035802103	0	0
0.062522142225835631	0.14524270420798721	0	0
0.040638560613719399	0.14524270420798721	0	0
0.018754979001603223	0.14524270420798721	0	0
0.062522142225835631	0.12862787544481938	0	0
0.040638560613719399	0.12862787544481938	0	0
0.018754979001603223	0.12862787544481938	0	0
0	0	0	0
0.062522142225835617	0	0	0
0.077917927005961979	0	0	0
0.12120586109182858	0	0	0
0.17514921925985058	0	0	0
0.23146275777685804	0	0	0
0.018754979001603223	0.40249845509762594	0	0
0.040638560613719399	0.40249845509762594	0	0
0.062522142225835631	0.40249845509762594	0	0
0.018754979001603223	0.35064563894759215	0	0
0.040638560613719399	0.35064563894759215	0	0
0.062522142225835631	0.35064563894759215	0	0
0.018754979001603223	0.33403081018442432	0	0
0.040638560613719399	0.33403081018442432	0	0
0.062522142225835631	0.33403081018442432	0	0
0.018754979001603223	0.21371034912118886	0	0
0.040638560613719399	0.21371034912118886	0	0
0.062522142225835631	0.21371034912118886	0	0
0.062522142225835631	0.2655631652712227	0	0
0.040638560613719399	0.2655631652712227	0	0
0.018754979001603223	0.2655631652712227	0	0
0.062522142225835631	0.28217799403439048	0	0
0.040638560613719399	0.28217799403439048	0	0
0.018754979001603223	0.28217799403439048	0	0
0	0.41080586947920988	0	0
0.062522142225835631	0.41080586947920988	0	0
0.077917927005962007	0.41080586947920988	0	0
0.12120586109182857	0.41080586947920988	0	0
0.17514921925985061	0.41080586947920988	0	0
0.23146275777685804	0.41080586947920988	0	0
0.077917927005961979	0.38375971409488419	0	0
0.12120586109182858	0.38375971409488419	0	0
0.077917927005961979	0.081820271314886894	0	0
0.12120586109182858	0.081820271314886894	0	0
0.077917927005961979	0.1783567793552793	0	0
0.077917927005961979	0.28722320605449192	0	0
0.12120586109182858	0.28722320605449192	0	0
0.12120586109182858	0.1783567793552793	0	0
0.40040337332788045	0	0	0
0.40040337332788045	0.41080586947920988	0	0
0.62565752739591041	0	0	0
0.62565752739591041	0.41080586947920988	0	0
[NumSegments] = 80
0	1	-1	0	0	1
1	2	-1	0	0	1
2	5	-1	0	0	1
5	4	-1	0	0	1
4	3	-1	0	0	1
3	0	-1	0	0	1
5	8	-1	0	0	1
8	7	-1	0	0	1
7	6	-1	0	0	1
9	10	-1	0	0	1
10	11	-1	0	0	1
11	12	-1	0	0	1
12	13	-1	0	0	1
13	14	-1	0	0	1
14	9	-1	0	0	1
12	15	-1	0	0	1
15	16	-1	0	0	1
16	17	-1	0	0	1
6	17	-1	0	0	1
8	15	-1	0	0	1
18	19	-1	3	0	1
19	20	-1	4	0	0
20	21	-1	5	0	0
21	22	-1	6	0	0
22	23	-1	7	0	0
19	2	-1	0	0	1
24	25	-1	0	0	1
25	26	-1	0	0	1
26	29	-1	0	0	1
29	28	-1	0	0	1
28	27	-1	0	0	1
27	24	-1	0	0	1
29	32	-1	0	0	1
32	31	-1	0	0	1
31	30	-1	0	0	1
33	34	-1	0	0	1
34	35	-1	0	0	1
35	36	-1	0	0	1
36	37	-1	0	0	1
37	38	-1	0	0	1
38	33	-1	0	0	1
36	39	-1	0	0	1
39	40	-1	0	0	1
40	41	-1	0	0	1
30	41	-1	0	0	1
32	39	-1	0	0	1
42	43	-1	3	0	1
43	44	-1	4	0	0
44	45	-1	5	0	0
45	46	-1	6	0	0
46	47	-1	7	0	0
43	26	-1	0	0	1
18	42	-1	1	0	1
11	35	-1	0	0	1
23	47	-1	0	0	0
22	46	-1	0	0	3
1	4	-1	0	0	0
7	16	-1	0	0	0
13	10	-1	0	0	0
34	37	-1	0	0	0
40	31	-1	0	0	0
28	25	-1	0	0	0
52	53	-1	0	0	0
53	54	-1	0	0	0
54	55	-1	0	0	0
52	55	-1	0	0	0
48	49	-1	0	0	0
48	44	-1	0	0	0
49	45	-1	0	0	0
50	51	-1	0	0	0
50	20	-1	0	0	0
51	21	-1	0	0	0
54	49	-1	0	0	0
51	55	-1	0	0	0
23	56	-1	8	0	0
47	57	-1	8	0	0
56	58	-1	9	0	0
57	59	-1	9	0	0
56	57	-1	0	0	0
58	59	-1	1	0	0
[NumArcSegments] = 0
[NumHoles] = 0
