[Format]      =  4.0
[Frequency]   =  0
[Precision]   =  1e-008
[MinAngle]    =  30
[Depth]       =  1
[LengthUnits] =  inches
[ProblemType] =  planar
[Coordinates] =  cartesian
[ACSolver]    =  0
[Comment]     =  "Add comments here."
[PointProps]   = 0
[BdryProps]   = 0
[BlockProps]  = 2
  <BeginBlock>
    <BlockName> = "Air"
    <Mu_x> = 1
    <Mu_y> = 1
    <H_c> = 0
    <H_cAngle> = 0
    <J_re> = 0
    <J_im> = 0
    <Sigma> = 0
    <d_lam> = 0
    <Phi_h> = 0
    <Phi_hx> = 0
    <Phi_hy> = 0
    <LamType> = 0
    <LamFill> = 1
    <NStrands> = 0
    <WireD> = 0
    <BHPoints> = 0
  <EndBlock>
  <BeginBlock>
    <BlockName> = "NdFeB 40 MGOe"
    <Mu_x> = 1.0489999999999999
    <Mu_y> = 1.0489999999999999
    <H_c> = 979000
    <H_cAngle> = 0
    <J_re> = 0
    <J_im> = 0
    <Sigma> = 0.66700000000000004
    <d_lam> = 0
    <Phi_h> = 0
    <Phi_hx> = 0
    <Phi_hy> = 0
    <LamType> = 0
    <LamFill> = 1
    <NStrands> = 0
    <WireD> = 0
    <BHPoints> = 0
  <EndBlock>
[CircuitProps]  = 0
[NumPoints] = 10
-0.25	-7.125	0	0
0.25	-6.875	0	0
0.25	-7.125	0	0
-0.25	-6.875	0	0
0	30	0	0
0	-30	0	0
3.3459936490538897	-6.2954310019641255	0	0
3.2209936490538897	-6.0789246510180162	0	0
3.6540063509461094	-5.8289246510180162	0	0
3.7790063509461094	-6.0454310019641255	0	0
[NumSegments] = 8
0	3	-1	0	0	1
3	1	-1	0	0	1
1	2	-1	0	0	1
2	0	-1	0	0	1
6	7	-1	0	0	1
7	8	-1	0	0	1
8	9	-1	0	0	1
9	6	-1	0	0	1
[NumArcSegments] = 2
4	5	180	1	0	0	0
5	4	180	1	0	0	0
[NumHoles] = 0
[NumBlockLabels] = 3
0	-7	2	0.10000000000000001	0	0	1	1	0	"theta"
0	5	1	0.10000000000000001	0	0	0	1	0
3.4999999999999996	-6.0621778264910713	2	0.10000000000000001	0	0	1	1	0	"theta+180"
