[Format]      =  1
[Precision]   =  1e-008
[MinAngle]    =  30
[Depth]       =  20
[LengthUnits] =  meters
[ProblemType] =  planar
[Coordinates] =  cartesian
[PrevSoln] = ""
[dT] = 0
[Comment]     =  "Add comments here."
[PointProps]   = 0
[BdryProps]   = 2
  <BeginBdry>
    <BdryName> = "Outer Boundary"
    <BdryType> = 2
    <Tset> = 0
    <qs>   = 0
    <beta> = 0
    <h>    = 5
    <Tinf> = 300
  <EndBdry>
  <BeginBdry>
    <BdryName> = "Inner Boundary"
    <BdryType> = 2
    <Tset> = 0
    <qs>   = 0
    <beta> = 0
    <h>    = 10
    <Tinf> = 800
  <EndBdry>
[BlockProps]  = 2
  <BeginBlock>
    <BlockName> = "Brick, Common"
    <Kx> = 5
    <Ky> = 2
    <Kt> = 3
    <qv> = 10
  <EndBlock>
  <BeginBlock>
    <BlockName> = "Air"
    <Kx> = 0.018100000000000002
    <Ky> = 0.018100000000000002
    <Kt> = 3
    <qv> = 0
    <TKPoints> = 18
      200	0.018100000000000002
      250	0.0223
      300	0.026100000000000002
      350	0.029700000000000001
      400	0.033099999999999997
      450	0.036299999999999999
      500	0.0395
      550	0.042599999999999999
      600	0.045600000000000002
      700	0.051299999999999998
      800	0.056899999999999999
      900	0.0625
      1000	0.067199999999999996
      1200	0.075899999999999995
      1400	0.083500000000000005
      1600	0.090399999999999994
      1800	0.097000000000000003
      2000	0.1032
  <EndBlock>
[ConductorProps]  = 0
[NumPoints] = 12
0	1	0	0	0
0	2	0	0	0
1	1	0	0	0
1	0	0	0	0
2	0	0	0	0
2	2	0	0	0
0	0	0	0	0
1	0.5	0	0	0
1.5	0.5	0	0	0
1.5	1	0	0	0
0.5	1.5	0	0	0
1.5	1.5	0	0	0
[NumSegments] = 12
1	5	-1	1	0	0	0
5	4	-1	1	0	0	0
4	3	-1	0	0	0	0
1	0	-1	0	0	0	0
0	6	-1	0	0	0	0
6	3	-1	0	0	0	0
10	2	-1	0	0	0	0
2	7	-1	0	0	0	0
7	8	-1	0	0	0	0
8	9	-1	0	0	0	0
9	11	-1	0	0	0	0
10	11	-1	0	0	0	0
[NumArcSegments] = 0
[NumHoles] = 0
[NumBlockLabels] = 2
0.5	0.5	1	-1	0	0
1.1619999999999999	1.224	2	-1	0	0
[Solution]
4399
0	0.02	301.99728658743214	-2
0	0.019980488155364688	302.0070232652734	-2
1.9511844635310908e-005	0.02	301.99728643232811	-2
0	0.019902668027937116	302.04578698149209	-2
4.4345040193632564e-005	0.01995565495980637	302.01938874789261	-2
9.7484408349097541e-005	0.02	301.99725528921306	-2
0	0.019824847900509542	302.08448290383876	-2
0.000100321786719574	0.019863757964223329	302.06506858388337	-2
0.0001754569720628842	0.02	301.99715404157843	-2
0	0.019669207645654396	302.16170338437212	-2
8.7889314765471661e-005	0.019747027773081967	302.12304513879621	-2
0.00030103597769799603	0.019783353525579365	302.1043818156972	-2
0.00033140209949045749	0.02	301.99663920201141	-2
0	0.0193579271359441	302.31518105054795	-2
0.00018189827535304868	0.019552314199998283	302.21925414758431	-2
0.00057620962067832574	0.019727306581310267	302.13047121312741	-2
0.00064329235434560403	0.02	301.99457167658557	-2
0	0.019046646626233808	302.4677732352398	-2
0.00035584765659101963	0.019207241088285306	302.38807014268224	-2
0.00065103611479266855	0.019456635582620851	302.26327208799364	-2
0.00090352078086678301	0.019672112820813499	302.15423446983675	-2
0.00095518260920075056	0.02	301.99109004086483	-2
0	0.018735366116523516	302.61973699094227	-2
0.000284402690586775	0.018891006371378662	302.54308489987676	-2
0.0007219612299425893	0.019202092090690511	302.38713505273273	-2
0.00055710613715751693	0.018995584077223852	302.4898234082051	-2
0.0009757600635171387	0.019275637405424484	302.34763619729267	-2
0.0012839835119295556	0.019689173274075177	302.13941619707276	-2
0.0013298161321994007	0.019381279470175438	302.28949631256438	-2
0.0012670728640558971	0.02	301.98614267858545	-2
0	0.018424085606813224	302.77159888335478	-2
0.00027717584786794534	0.018566546248864071	302.70122305960592	-2
0.00059333458407344428	0.018493264246443226	302.7343688309565	-2
0.0008419939679579347	0.018931221120538841	302.51763928115577	-2
0.0011535868829962196	0.018951764640454137	302.50205862813567	-2
0.0015613266412888615	0.019519531176285961	302.21652889005549	-2
0.0015789631189110436	0.019788602922700214	302.08421475098464	-2
0.0014655207741988638	0.018937292998123606	302.50170862426961	-2
0.00170498123682947	0.019291333877350599	302.32378898249635	-2
0.0018908533737661902	0.02	301.97278037187601	-2
0	0.018112805097102933	302.92356386962064	-2
0.00035983526281875995	0.018204522803322253	302.87736822037704	-2
0.00089247631829416003	0.01841089106269396	302.76976949154414	-2
0.00099399901546768027	0.018683354705000436	302.6356267346689	-2
0.00071215437613417795	0.018158393308784705	302.89583688390019	-2
0.0014073197909528206	0.018661351299052723	302.63672767982604	-2
0.0019135437326147603	0.019615339919441744	302.16051526404334	-2
0.0016673472459415011	0.01877051584636109	302.57634988994994	-2
0.0018661938563554938	0.018940834866358752	302.48800125273749	-2
0.0020903403119811323	0.019272964103292139	302.32067443640568	-2
0.0022027436286213365	0.02	301.96413492985272	-2
0	0.017801524587392637	303.07600611996452	-2
0.00039071829352920666	0.017921535808822518	303.01549896242	-2
0.0011961841704092654	0.018474394284007503	302.73247476826049	-2
0.0011994518210709617	0.018183153904617382	302.87362348337047	-2
0.00098844384803576041	0.017934963642916458	302.99954613727186	-2
0.00064396369373786848	0.017791527470955245	303.07598805962897	-2
0.0016696615711203119	0.01850870830837743	302.70233199222207	-2
0.0014437837010565216	0.018341689605804436	302.79001656666242	-2
0.0022507552476405787	0.019572634588309438	302.17058224557638	-2
0.0020636712211849744	0.0187032404139062	302.59460941774597	-2
0.0022668531238658964	0.018935975344415535	302.47552376622394	-2
0.0024370928774282716	0.019239868554745715	302.32368469759245	-2
0.002514633883476483	0.02	301.95420951748133	-2
0	0.017490244077682345	303.22936612455743	-2
0.00031964323275722987	0.017645884332537488	303.15131752397718	-2
0.001464089382570345	0.018061504419736397	302.9248177061138	-2
0.0011719798760694538	0.017729896938799439	303.09486918071417	-2
0.00089127853773543399	0.017682943985063981	303.12471508240731	-2
0.00060062628976667294	0.017454109338596462	303.24267211778647	-2
0.0018859779438117658	0.018267583555085811	302.8101717121026	-2
0.0025854767940312979	0.019513500524057658	302.18678713191201	-2
0.002174499551866695	0.018414856096415588	302.72750749128176	-2
0.0024342883814789866	0.018594385486725498	302.63037871136618	-2
0.0026345784950757372	0.018838526651570296	302.50562336807553	-2
0.0027813761954242071	0.019186937902685958	302.33391966712247	-2
0.0028265241383316295	0.02	301.94255172685399	-2
0.0028735694324380674	0.019631377040089538	302.11860259456785	-2
0	0.017178963567972053	303.38387710864498	-2
0.00028999784051778928	0.017300717244320741	303.32208151804718	-2
0.001683883020456343	0.017918913610587065	302.98571964164432	-2
0.0014414300235527189	0.01778588305087243	303.05898066219078	-2
0.0010651705822805368	0.017476264130424583	303.22216284852493	-2
0.0015116926266476049	0.017308427146928592	303.29015411455157	-2
0.00073998856961325578	0.017143775193547265	303.39423920286748	-2
0.0019441545622549455	0.017948915387847774	302.96046738591673	-2
0.0023872446537738156	0.018220633493497194	302.80959646800267	-2
0.0027251697089496294	0.018471466443020751	302.67349521016916	-2
0.0030012451764436674	0.018930697739804131	302.44353797463373	-2
0.0030548152173574452	0.018597333613652657	302.59625040950374	-2
0.0031003639976938456	0.0192381977362375	302.2946089741211	-2
0.0031384143931867756	0.02	301.93025990433972	-2
0.0032915851070952373	0.019610498050226223	302.10953843365883	-2
0	0.016867683058261758	303.53929003710243	-2
0.00040590795242075565	0.01690947247773935	303.51637668287964	-2
0.0016860749141927433	0.017656927775643892	303.11269583579769	-2
0.0010269992727687451	0.017188334267554558	303.36541022416537	-2
0.0016305786115916896	0.017072179025787865	303.40195303369961	-2
0.0019677755342992053	0.017387657222006719	303.23073658269834	-2
0.0011951835786580666	0.016951533308826087	303.47844097250248	-2
0.00071956443962604348	0.01681757110114462	303.55800403745332	-2
0.0024638890747913935	0.017942949265286903	302.93699959425351	-2
0.002200985199437411	0.017681399420279735	303.07649457592908	-2
0.0026707431092894284	0.018169530425192759	302.81821542456896	-2
0.0029664867666118855	0.018251159481085463	302.76202877413266	-2
0.0033226037577850963	0.018827111775086586	302.47390212943264	-2
0.0033949112070934934	0.018503294134593132	302.61803441049204	-2
0.0032873560405912061	0.018189418175528254	302.76947820880196	-2
0.0033555542612865247	0.019342384467938591	302.23253546704126	-2
0.0034503046480419226	0.02	301.91657954398244	-2
0.0036062497754694956	0.019709363791678383	302.04727475192453	-2
0	0.016245122038841174	303.85564495746502	-2
0.00023715239361716596	0.016556402548551466	303.69644389021482	-2
0.00057182201318097881	0.016514347491375939	303.7140313355219	-2
0.001520953477497002	0.01683149379123167	303.52656359382496	-2
0.0018590067755541351	0.016938883766804681	303.45692411236018	-2
0.0022285256885341436	0.017276820199992476	303.27025473645523	-2
0.0022093773383452817	0.016994138702423965	303.40974048607404	-2
0.00090723634612421388	0.016549979041289867	303.68912066783003	-2
0.0012636127688068783	0.016598446001229932	303.65388905544461	-2
0.0027596738252273507	0.017853984080702292	302.96100162916423	-2
0.0024695849473893635	0.017425702442394657	303.18332100845822	-2
0.00305712015906818	0.017937225303322372	302.90214428362151	-2
0.0035748838699759394	0.018983326896960459	302.38669874725178	-2
0.0036704375225355525	0.01871057731560296	302.50511500874774	-2
0.0036257676788653331	0.018264984418128842	302.71018601578976	-2
0.0035394901642808252	0.017929143854144576	302.86937950443524	-2
0.0036231077178119704	0.019276111595688004	302.24874773258574	-2
0.0037621949028970691	0.02	301.90195386797683	-2
0.0038813539837547813	0.019748908015804634	302.01420071663182	-2
0	0.015933841529130879	304.01646887371163	-2
0.00037253412717120509	0.016207281721720868	303.87353849021866	-2
0.00076692570306215538	0.016274268601448018	303.83325319180653	-2
0.0015184864835115441	0.016521242676131757	303.68330225970749	-2
0.0017745556728418982	0.016594383185627285	303.63423506325148	-2
0.0020803987670566797	0.016561360525845139	303.63417883551961	-2
0.0024901373743896164	0.01700006790482542	303.3883186048887	-2
0.0023560768992399337	0.016697859836370545	303.54766337008721	-2
0.0011097149169974764	0.016273378851154173	303.82507931889398	-2
0.001516763084647776	0.016254938350688239	303.82013668023939	-2
0.0029520285315640547	0.017612316768868944	303.06157472878238	-2
0.002656741951032104	0.017226130436710983	303.26681400058368	-2
0.0029109161299541776	0.017327383664977655	303.19895894551843	-2
0.003290440169838183	0.017687883011469535	302.99993280593344	-2
0.003866995522169452	0.019035472864799487	302.34448826741834	-2
0.0039528229109000333	0.018772069811782689	302.45801623128602	-2
0.0038748176733079754	0.01850624526080388	302.58271525349983	-2
0.0039549904798738527	0.018174308328511787	302.7247730910147	-2
0.0038904665820066551	0.017838977935412444	302.87975364911563	-2
0.003618462069325026	0.017575480487489002	303.02336612361569	-2
0.0041456010162956754	0.019234890112199584	302.23609510799832	-2
0.0040719945044346804	0.019546664936929442	302.09762211563697	-2
0.0040740851577522157	0.02	301.88660788626686	-2
0	0.015622561019420587	304.17790025945345	-2
0.00032017116449697958	0.015829609105823775	304.06913967561451	-2
0.00067039066868983819	0.015980356522191298	303.9867388295358	-2
0.00095747887933697498	0.01602577670541596	303.95716557974794	-2
0.0017809189810040673	0.016321937381747195	303.77335697222583	-2
0.0020496722245606546	0.016276783181273166	303.78196487926743	-2
0.0023205865390984255	0.016369161856495996	303.71672124731009	-2
0.0026381378509064742	0.016726150401362595	303.51269713954065	-2
0.0027700176728747022	0.01697708156539017	303.37875644138296	-2
0.0012396832219295378	0.015956182576650407	303.98534417166695	-2
0.0015666341107175485	0.015930819465316607	303.98681822965221	-2
0.0018708374298955328	0.01605329604143179	303.90867104551251	-2
0.0031980211529252776	0.017306222165880937	303.1854693420479	-2
0.0030393304816871474	0.01706972719304602	303.31135238654997	-2
0.004188645505811028	0.018917449358914758	302.37613471132613	-2
0.0041651022669577965	0.018400707223356755	302.60716565186561	-2
0.0041963075375361101	0.017954001366576502	302.80070162356878	-2
0.0038858400870818259	0.01755378161947458	303.00767719450295	-2
0.0041335716397660526	0.017656693829913018	302.93715846587941	-2
0.0035758419871834111	0.01719918155235952	303.20008476309181	-2
0.0038632007045124174	0.017286481594017154	303.13070374248196	-2
0.0043508391930247529	0.019480855050222467	302.11109631765663	-2
0.0045480060893876148	0.019272983656033856	302.19202501326305	-2
0.0043859754126073626	0.02	301.86984305550675	-2
0.00026638451404501352	0.015561708499818297	304.20878254259742	-2
0	0.015311280509710295	304.34016734951626	-2
0.00060305821661111583	0.015654592369613963	304.15714910711114	-2
0.00085554706944690636	0.015768305794540024	304.09368319643374	-2
0.0011295742969457266	0.015667346997450267	304.14021911016499	-2
0.0023174165983431889	0.015879238146243865	303.97426842947613	-2
0.0028080107898253892	0.016499210054254258	303.61254855497378	-2
0.0028041280045011914	0.016225347444238186	303.75386443209408	-2
0.0025932542353106804	0.015964330151312756	303.90901123769009	-2
0.0030524216709308548	0.016622818817632657	303.52829537110819	-2
0.0013687355791903095	0.015499759762865923	304.22190527952267	-2
0.0018058638377350866	0.015775651905447816	304.05872809297745	-2
0.0033099304861388358	0.016980911434844325	303.32906742611129	-2
0.0045631044334061678	0.018889560742903221	302.36064412260481	-2
0.0044637811094701647	0.018479411554203948	302.54809132600047	-2
0.0044058100038932343	0.018178135991752258	302.68371774746277	-2
0.004517176811515429	0.017892260061019301	302.79590942942826	-2
0.004155917477126226	0.017353662102566524	303.06852874435003	-2
0.0044757574029143689	0.017529587156826464	302.95577249657282	-2
0.0037752728409808176	0.016999314359616772	303.27158549429043	-2
0.0042059426690362013	0.017069844668108628	303.18879370330239	-2
0.0046201426369140222	0.019578635194692898	302.04966190239048	-2
0.0048288353479905175	0.019413559159185058	302.10987101571038	-2
0.0048359242969662182	0.019147565753330962	302.22692965405753	-2
0.0046978656674625087	0.02	301.8518254927933	-2
0.00041476473652054364	0.015332259054312196	304.32750793373634	-2
0	0.014999999999999999	304.50178701444514	-2
0.00030263618318072152	0.015047222538963281	304.47664062579088	-2
0.00089445222896808257	0.015494138414318782	304.23652964006749	-2
0.0010689086959636926	0.015196969385547687	304.38931148674163	-2
0.0025101297678356339	0.015687893225050282	304.06492770332324	-2
0.0022157851166189524	0.015584161867802322	304.14020943776569	-2
0.0030403022325908575	0.016354101505902944	303.66455425491972	-2
0.0029310594038100372	0.015975223352110032	303.87423038536434	-2
0.002776414878668088	0.015741217556376131	304.01529556973901	-2
0.0032914684842869162	0.016513170964435393	303.55837104267323	-2
0.0016425841303775546	0.015408177513373896	304.2614478838737	-2
0.0014128991404462809	0.01517659625024609	304.39263932123117	-2
0.0019123599787828158	0.015511140268905179	304.19527198569688	-2
0.0034887893180318014	0.016687040223525896	303.45196003786464	-2
0.0049100337561300391	0.018745903830806737	302.39545553956685	-2
0.0046742290729890265	0.018282702244509098	302.61392085899206	-2
0.0046781501157478061	0.017690174325810479	302.86475939785316	-2
0.0048377090213951651	0.017948812816739254	302.73912862369923	-2
0.0044881236182091784	0.017128400349743542	303.12673525836539	-2
0.0047301193235657103	0.017416841694337108	302.9736664791447	-2
0.0040165317487906981	0.01685263886887748	303.31086215878491	-2
0.0037692306935638298	0.016717032492264618	303.40489165068567	-2
0.0044795621306889201	0.016654139455066285	303.33605379229613	-2
0.0041896398310034026	0.016617145606665905	303.39544983071454	-2
0.0049024834057672965	0.019711966254845486	301.97110092512571	-2
0.0050893139713990686	0.019467906485730428	302.06752397963652	-2
0.0052370445956260924	0.019224552881777383	302.1628699985049	-2
0.0052025979919900324	0.018941959984857832	302.28719184003131	-2
0.0050097559223176557	0.02	301.83334603513254	-2
0.00061870127718694564	0.015087460864259933	304.45338105832536	-2
0	0.014688719490289706	304.66215722043268	-2
0.00026725674391952744	0.01463085258966077	304.69163262558243	-2
0.00048260656500369271	0.014799373211300631	304.60395330865214	-2
0.0010018454620509098	0.014858964928188756	304.56847746495066	-2
0.0025690666541536289	0.015422793832381154	304.20918281858741	-2
0.00240212474213207	0.015216860301872226	304.33444907919022	-2
0.0021380562535790273	0.015240228107301849	304.33356288391701	-2
0.0032884134541329609	0.016250194354302069	303.69219550730173	-2
0.0032112298073860355	0.015961874698488882	303.85349417352944	-2
0.0031287338102624351	0.015675029880317156	304.02099054067679	-2
0.0029347716842098464	0.015319610572092926	304.24310617655703	-2
0.0037309795528181521	0.016437597792332691	303.54414470780119	-2
0.0035615660003472955	0.016221402691592234	303.67452191316289	-2
0.0017364148381536638	0.015135091197921056	304.40585070970008	-2
0.0014452004704394229	0.014839179406442868	304.5714309307582	-2
0.0016994939043244615	0.014880174381756981	304.54446045868838	-2
0.0049571074034845527	0.018228271113656224	302.61021992301733	-2
0.0052040321600434203	0.018589781350060598	302.43543207244716	-2
0.0049348437550310667	0.017660858381311043	302.84764349810837	-2
0.005263560510436068	0.017932103625519284	302.69965450874673	-2
0.0047258915496521149	0.016886900373448796	303.1977465909082	-2
0.0048853546005339947	0.017185944455778573	303.04997799118081	-2
0.0040678175951570708	0.016351471318245273	303.53974423958516	-2
0.0048558872298210265	0.016450225401392703	303.36332609536049	-2
0.0045787626684348354	0.016360228925237041	303.45256292036709	-2
0.0052480520712798549	0.01976363530946568	301.92525400058418	-2
0.0055144607745506204	0.019559479182045543	301.99697002614465	-2
0.0055036492418761018	0.019124716633403607	302.18482309469306	-2
0.005484358081512989	0.018817158488017294	302.31570159231916	-2
0.0056335364320279488	0.02	301.79419778160576	-2
0	0.014377438980579414	304.82059270678127	-2
0.00036399016917585374	0.014375084355125975	304.82125298324479	-2
0.0006619437824742434	0.014584172929276086	304.71375713055505	-2
0.00093937129446145255	0.014545353159234135	304.73158550267613	-2
0.0012290582932577381	0.014628961665112617	304.68569284193848	-2
0.0026034322033631043	0.015044368194719462	304.42263462008356	-2
0.0028534968678369499	0.015080393943823711	304.38853688244228	-2
0.0022137925910063845	0.014895850095584253	304.52161434109229	-2
0.0019557424552018089	0.014917566004841292	304.51739945275386	-2
0.0034637126996185292	0.015802695779082752	303.91103395243044	-2
0.0031932373994347112	0.015262677750996899	304.25631180884869	-2
0.003394542039692337	0.015434498337293772	304.13435994442182	-2
0.0038071331504599291	0.016098365916071541	303.70566679673158	-2
0.0016561757121908048	0.014448737890077253	304.77526201154041	-2
0.0018585168440731956	0.014677548018339681	304.65014316328381	-2
0.0052927534255562706	0.018268942095068724	302.55955719885918	-2
0.0055277122682929683	0.018512060837829244	302.43724476523312	-2
0.0052106886181974288	0.017591681939458318	302.84218256932803	-2
0.0055326093278260458	0.018078470135281376	302.61109956982938	-2
0.0054744969847676838	0.017697893588396681	302.76773383082963	-2
0.005042580785568236	0.016673928115918901	303.23710409189079	-2
0.0052870281788241422	0.016831629423572338	303.13286560953071	-2
0.0054129897172573264	0.01709384674058393	303.01087095775188	-2
0.0054104538798906291	0.017389272431620074	302.89628436325336	-2
0.0042156599069586975	0.016094580309965901	303.64289704934083	-2
0.0051397445300805115	0.016264913900613583	303.38612087120578	-2
0.0048169211881785049	0.01616147111858007	303.49822569993614	-2
0.0045097645312589998	0.016057799754521235	303.60748336344869	-2
0.0057177460699018605	0.019740883710891898	301.9034432748183	-2
0.0056785228583982007	0.019337883636727046	302.08007730237506	-2
0.0057576036608117196	0.01897285370050799	302.2271909893397	-2
0.0059158845888322032	0.018722849010332863	302.31482430149242	-2
0.0059454266868830949	0.02	301.77371847927731	-2
0	0.014066158470869122	304.97523546151626	-2
0.00026464328558837685	0.014062645707416419	304.97689987041394	-2
0.00051037388507935296	0.014160955831960595	304.9278948950427	-2
0.00072223177616159804	0.014310606928518177	304.85267046107117	-2
0.001049977578867878	0.014245317139575416	304.88455650809374	-2
0.0013640948288476972	0.014359380372025183	304.82423670033103	-2
0.0027334985884973476	0.014802033515398636	304.55717968061322	-2
0.0025269109164396458	0.014620471142927917	304.66769104665826	-2
0.0029989909480661915	0.014873846942792018	304.50420925131431	-2
0.0032580820081089339	0.015006082644281007	304.40846764744055	-2
0.0021839341597079875	0.014546195382602259	304.71570990727531	-2
0.0037687251549524963	0.015737057806284774	303.90781122799649	-2
0.0035486188683374253	0.01509301002532798	304.33235773775857	-2
0.0037509133677982387	0.015318941369357564	304.16450955505047	-2
0.0040630824393648761	0.015840473136363314	303.80458862309587	-2
0.0019175924087708074	0.014092574636076343	304.95922981274708	-2
0.0021405427330810026	0.014266671336550346	304.86714434454569	-2
0.001603217102238998	0.014147920014812354	304.93181210947029	-2
0.0057697159522483079	0.018297971070057501	302.49869778570661	-2
0.0057686298213510331	0.0178832657604454	302.66017809555376	-2
0.0056941255334633399	0.017471814314047474	302.82606152772229	-2
0.0058855345856752388	0.017649625806359589	302.7340661825566	-2
0.0054783828911901507	0.016322227179031847	303.29384714946872	-2
0.0055545046402142315	0.016717259090410944	303.12974186009359	-2
0.0056475056751062284	0.017212951089235221	302.92981795695289	-2
0.0058476662203025033	0.017042307201269181	302.96147738436633	-2
0.0042817417807377153	0.015675976826253997	303.85658231359469	-2
0.0055093307452541984	0.016065022486496976	303.3834371626096	-2
0.0052751918029399414	0.015954157797686296	303.48499836994733	-2
0.0047840091171882718	0.015884933127596694	303.63356281293972	-2
0.0045487101321391261	0.015735967183472449	303.76676399114092	-2
0.0059778061803780428	0.019659635613491867	301.91993590921345	-2
0.0059286872975345788	0.019221958201843262	302.10898434675124	-2
0.006052297961788443	0.018946199127609011	302.21200228094381	-2
0.0061675906658757718	0.018711249184870563	302.2951778370101	-2
0.0060283503531276582	0.01845888212022977	302.40855185087605	-2
0.0062573169417382427	0.02	301.75244664110943	-2
0	0.013754877961158827	305.12547911403396	-2
0.0002604638228491051	0.013758062967351754	305.12413051388319	-2
0.00047635293827280362	0.013903814252489113	305.05424664751541	-2
0.00082905104783802101	0.01399457516937719	305.0096653632292	-2
0.0013062551130730584	0.014030836620195481	304.99091052869085	-2
0.0010852645400907541	0.013780937448047632	305.11430276694261	-2
0.0030618125205812046	0.014589825978479349	304.67379094456453	-2
0.0027900223671278907	0.01452940656168949	304.71508113111747	-2
0.0023992012031667283	0.014381180305975752	304.80272479735982	-2
0.0032620961336976124	0.014749790022645608	304.57015730711606	-2
0.0035111598769962281	0.01468921549926268	304.59961955452741	-2
0.0039944862570392122	0.015521714206039785	304.00139984330025	-2
0.0038417584415445533	0.015015310428501107	304.36046400410618	-2
0.0037888952755438859	0.014738274013700372	304.55646820945765	-2
0.0040543438210630719	0.015227428880041362	304.18684585384221	-2
0.0022232449803888262	0.013930957065043137	305.04287294172013	-2
0.0019359838755656311	0.013757521538607754	305.12820311427498	-2
0.002504958362036176	0.014131409813600487	304.93935972462759	-2
0.0016894140770117938	0.013641528088514356	305.18393192970035	-2
0.0014286152887775466	0.013720490979032609	305.14444478704064	-2
0.0060684143518803316	0.018174766046743594	302.51377993926519	-2
0.006186755731839297	0.017886994652366487	302.60782498136689	-2
0.0060956687789176537	0.017255448594784454	302.84777190426365	-2
0.0061372853352681467	0.017579798074430747	302.72562550459611	-2
0.0058546481615266328	0.016134647504847742	303.27638962504562	-2
0.0058719428079835653	0.016470119977105187	303.1590248022282	-2
0.0058390707396750998	0.016755333902831786	303.06548474149599	-2
0.0061172881326348348	0.016762150628618893	303.01329372224654	-2
0.0062818283858927567	0.016986600824772932	302.90985619836482	-2
0.0042981007971561484	0.015402840731621658	304.02004471102867	-2
0.0056646065615973953	0.015857654590254375	303.41701983471592	-2
0.0049777723977494567	0.015684902489992967	303.68369445099148	-2
0.0052896939034142122	0.015553225867819485	303.64718233218338	-2
0.0047076072782020169	0.015480832485575111	303.87085784709836	-2
0.006284360797167144	0.019599506200551731	301.92244346426577	-2
0.0062223346534731562	0.019293329720603169	302.05518334871698	-2
0.0063124260023191374	0.018917436552303091	302.2002890652393	-2
0.0063116272474725843	0.018504503040206816	302.36163193385647	-2
0.0063216588195929404	0.018242538783434289	302.45996848215867	-2
0.0065692071965933888	0.02	301.7301657593818	-2
0.0065908158959499703	0.019660140776539745	301.87336340518596	-2
0	0.013443597451448535	305.27130834706918	-2
0.00041554280081370785	0.013548773555600769	305.22299868323756	-2
0.00075498968170261804	0.01366930398461994	305.16698156087824	-2
0.00098488008160767509	0.013447071497799296	305.27179286613949	-2
0.0029878550046748705	0.014280996911370169	304.85538962313154	-2
0.0033020687517768665	0.01449437718195333	304.72733544228305	-2
0.0027902581340660199	0.014064642234295391	304.97630119477827	-2
0.0038361548809883834	0.014446663561128312	304.75521613227016	-2
0.0035348921803365842	0.014382008233839063	304.79555318774391	-2
0.0041380700631881463	0.014928574219260173	304.39744130028737	-2
0.0040550743519147834	0.014645041032692601	304.61578130354667	-2
0.0044360334096835118	0.015009454323487516	304.29843903885211	-2
0.00235999016104979	0.013697056955190809	305.16306883402359	-2
0.0021398580875400708	0.013539100074887223	305.2375834026243	-2
0.0018615796982625224	0.013430316950354458	305.28625545077426	-2
0.0026280389008080779	0.013657580646638414	305.18708901683914	-2
0.0014791057536962954	0.013417086167148307	305.28856588820554	-2
0.0064962760661647963	0.018047001775516981	302.51206055888417	-2
0.0064380261746837678	0.017703472931076932	302.64143778912211	-2
0.0063751270696688015	0.017384436529945049	302.76133096285884	-2
0.0060151982982288923	0.015839580498824571	303.32634824508403	-2
0.0061376706863914623	0.016249924288051571	303.17434117617228	-2
0.0062663267946485059	0.016527121135318703	303.06161289460658	-2
0.006409732703270327	0.016752284346605476	302.96346244012466	-2
0.0067396712046561792	0.01694486549610735	302.84640262560322	-2
0.00665465597768038	0.017255601700522254	302.76213729342618	-2
0.0047097692617805659	0.015180270773234528	304.08440833910186	-2
0.005839954333808346	0.015535391755591899	303.46616941811936	-2
0.0055040236227433727	0.015402188380686284	303.62601251843131	-2
0.0049764025154984343	0.015346329186341004	303.866266340133	-2
0.0051482225673799564	0.015219814194290233	303.86027060526999	-2
0.0053432918873748238	0.015195029358790919	303.77310574607793	-2
0.0066004960788443555	0.019213291845364116	302.0559702384964	-2
0.006724177888086439	0.018948663271447775	302.14940278437678	-2
0.0066913537562482694	0.018658408127756126	302.2641260353011	-2
0.0066800390366432375	0.018325193946626451	302.3896667167279	-2
0.0068810974514485349	0.02	301.70811911580438	-2
0.0069034648694418117	0.019340737751181235	301.97881640603094	-2
0.0070748215268213134	0.019676562096395688	301.82855632016884	-2
0	0.013132316941738243	305.41136185562647	-2
0.00035770138728176149	0.013182158496838379	305.38949706121002	-2
0.00069226670131669989	0.013318175090395195	305.32931202181919	-2
0.001228026711790097	0.013239426150155947	305.36726053613006	-2
0.00093368379116206624	0.013055604221183509	305.44695197175207	-2
0.0032925925578734163	0.01419166533508762	304.90872905360408	-2
0.0030503286700591047	0.013929671178602649	305.05226164282846	-2
0.0029293390487186949	0.013653703199931519	305.19489154273975	-2
0.0041517412534931982	0.014318381233945705	304.84975598206557	-2
0.0038892890433150197	0.014125051532796515	304.9622294676966	-2
0.0035815465297896558	0.014074208780573347	304.98273270698769	-2
0.0043453881235830287	0.014699788360980761	304.57363829855473	-2
0.0047209542154984111	0.014858028729081344	304.42230451099505	-2
0.0023280397496714912	0.013307021872206589	305.35092320770212	-2
0.0016763407441315636	0.013250311546498137	305.36674758466535	-2
0.0018977693652329592	0.013105576815168078	305.4352370522285	-2
0.0026016575668756665	0.013196934393822045	305.40849635082839	-2
0.0028860546388368279	0.013275064210464364	305.3788504353173	-2
0.001417392804820462	0.013070847099126965	305.44447209373732	-2
0.0068445077337182672	0.018035177117686988	302.47444607927844	-2
0.0066712609382664446	0.017539959515904268	302.66630298442493	-2
0.006323563552069849	0.016007366400493647	303.20064395856269	-2
0.0063376424086930994	0.015614234147855592	303.29141395963893	-2
0.0065752584757352494	0.016275428709138787	303.07106802227634	-2
0.0066497864204601654	0.016635502758981558	302.95457892302727	-2