[Format]      =  1
[Precision]   =  1e-008
[MinAngle]    =  30
[Depth]       =  20
[LengthUnits] =  meters
[ProblemType] =  planar
[Coordinates] =  cartesian
[PrevSoln] = ""
[dT] = 0
[Comment]     =  "Add comments here."
[PointProps]   = 0
[BdryProps]   = 2
  <BeginBdry>
    <BdryName> = "Outer Boundary"
    <BdryType> = 2
    <Tset> = 0
    <qs>   = 0
    <beta> = 0
    <h>    = 5
    <Tinf> = 300
  <EndBdry>
  <BeginBdry>
    <BdryName> = "Inner Boundary"
    <BdryType> = 2
    <Tset> = 0
    <qs>   = 0
    <beta> = 0
    <h>    = 10
    <Tinf> = 800
  <EndBdry>
[BlockProps]  = 2
  <BeginBlock>
    <BlockName> = "Brick, Common"
    <Kx> = 5
    <Ky> = 2
    <Kt> = 3
    <qv> = 10
  <EndBlock>
  <BeginBlock>
    <BlockName> = "Air"
    <Kx> = 0.018100000000000002
    <Ky> = 0.018100000000000002
    <Kt> = 3
    <qv> = 0
    <TKPoints> = 18
      200	0.018100000000000002
      250	0.0223
      300	0.026100000000000002
      350	0.029700000000000001
      400	0.033099999999999997
      450	0.036299999999999999
      500	0.0395
      550	0.042599999999999999
      600	0.045600000000000002
      700	0.051299999999999998
      800	0.056899999999999999
      900	0.0625
      1000	0.067199999999999996
      1200	0.075899999999999995
      1400	0.083500000000000005
      1600	0.090399999999999994
      1800	0.097000000000000003
      2000	0.1032
  <EndBlock>
[ConductorProps]  = 0
[NumPoints] = 12
0	1	0	0	0
0	2	0	0	0
1	1	0	0	0
1	0	0	0	0
2	0	0	0	0
2	2	0	0	0
0	0	0	0	0
1	0.5	0	0	0
1.5	0.5	0	0	0
1.5	1	0	0	0
0.5	1.5	0	0	0
1.5	1.5	0	0	0
[NumSegments] = 12
1	5	-1	1	0	0	0
5	4	-1	1	0	0	0
4	3	-1	0	0	0	0
1	0	-1	0	0	0	0
0	6	-1	0	0	0	0
6	3	-1	0	0	0	0
10	2	-1	0	0	0	0
2	7	-1	0	0	0	0
7	8	-1	0	0	0	0
8	9	-1	0	0	0	0
9	11	-1	0	0	0	0
10	11	-1	0	0	0	0
[NumArcSegments] = 0
[NumHoles] = 0
[NumBlockLabels] = 2
0.5	0.5	1	-1	0	0
1.1619999999999999	1.224	2	-1	0	0
[Solution]
4401
0	2	301.99728623179817	-2
0	1.9980488155364688	302.00702292372301	-2
0.0019511844635310908	2	301.99728609979275	-2
0	1.9902668027937116	302.04578683240885	-2
0.0044345040193632564	1.9955654959806368	302.01938843404957	-2
0.009748440834909753	2	301.99725476230469	-2
0	1.9824847900509541	302.08448345452712	-2
0.010032178671957399	1.986375796422333	302.06506844206956	-2
0.017545697206288416	2	301.99715326421011	-2
0	1.9669207645654394	302.16170810436165	-2
0.0087889314765474246	1.9747027773081967	302.12304713616595	-2
0.030103597769800126	1.978335352557937	302.10438006156915	-2
0.033140209949045742	2	301.9966376192321	-2
0	1.9357927135944102	302.31519778225703	-2
0.018189827535304997	1.9552314199998277	302.2192632727299	-2
0.057620962067833278	1.972730658131026	302.13046277303067	-2
0.064329235434560386	2	301.99456842758002	-2
0	1.904664662623381	302.46779334435206	-2
0.035584765659103047	1.9207241088285287	302.3880948837849	-2
0.065103611479269158	1.9456635582620845	302.26328980628813	-2
0.090352078086678514	1.9672112820813508	302.15419841171183	-2
0.095518260920075038	2	301.99108994499989	-2
0	1.8735366116523515	302.61974901728865	-2
0.028440269058676141	1.8891006371378662	302.54310300567028	-2
0.072196122994275413	1.9202092090690466	302.38718026990443	-2
0.055710613715755614	1.899558407722381	302.48984762116584	-2
0.097576006351747069	1.9275637405424131	302.34771903737897	-2
0.12233189172207538	1.968302139329994	302.14378330331499	-2
0.12670728640558968	2	301.98625753736485	-2
0	1.8424085606813223	302.77159493833312	-2
0.027717584786795323	1.8566546248864055	302.70122910383492	-2
0.059333458407342547	1.8493264246443031	302.734376464062	-2
0.084199396795800283	1.8931221120538768	302.51766100635416	-2
0.13298161321994853	1.9381279470175332	302.28936656605157	-2
0.11535868829963414	1.8951764640453859	302.50208822987247	-2
0.15789631189110431	1.9795439342771579	302.08092423664601	-2
0.16449391005589142	1.9473730175932547	302.23686373966518	-2
0.18908533737661898	2	301.97285447386565	-2
0	1.8112805097102931	302.92354459752528	-2
0.035983526281860606	1.8204522803322334	302.87734667987723	-2
0.089247631829413421	1.8410891062693628	302.76980273389228	-2
0.099399901546765645	1.8683354705000199	302.63562161161548	-2
0.071215437613386709	1.8158393308784539	302.89578978672381	-2
0.15962130876179756	1.9191804244343642	302.37494732281499	-2
0.14655207741990278	1.8937292998123372	302.50175355982498	-2
0.11961841704092709	1.8474394284007167	302.73257309912128	-2
0.1965135201517168	1.9546696436038136	302.19240555868618	-2
0.18817402348204629	1.9173618990707773	302.37550599248414	-2
0.22027436286213362	2	301.96384488371785	-2
0.21912502328592515	1.9717099036116565	302.1024919610615	-2
0	1.7801524587392636	303.07598636800645	-2
0.03907182935287655	1.7921535808822584	303.01547672251809	-2
0.1114153937371084	1.8196268181113273	302.86944442699985	-2
0.098844384803518592	1.7934963642916162	302.99936996024707	-2
0.064396369373751053	1.779152747095551	303.07597107731829	-2
0.17629377183947434	1.8898167327238846	302.51191348708727	-2
0.15764704515960803	1.863070363808627	302.64663926589441	-2
0.1449848939989539	1.8360614489865164	302.78068155279789	-2
0.21976753253019027	1.9413921674933106	302.24906437160126	-2
0.22642216835696943	1.9154546216268236	302.37117461624649	-2
0.20558121164886897	1.8833265526354819	302.53289730022544	-2
0.25146338834764825	2	301.95410581380997	-2
0.24243815273396241	1.955642902321364	302.17235406203821	-2
0	1.7490244077682344	303.22934857344922	-2
0.031964323275710936	1.7645884332537489	303.15129943710792	-2
0.13841382187299175	1.8090477935521352	302.9133498137636	-2
0.1240952270873584	1.7873639399282979	303.0227268970736	-2
0.089127853773466659	1.7682943985064095	303.12479214270678	-2
0.060062628976664936	1.7454109338596786	303.24265580568448	-2
0.18563840532639064	1.8634288083741317	302.63544588779251	-2
0.172721133762021	1.8341594572363435	302.78081288224223	-2
0.23364850506268489	1.8879433847239508	302.49961468216719	-2
0.2647098842512246	1.9162350735613627	302.35181295176733	-2
0.21167734929188609	1.853151740521146	302.67439258952282	-2
0.31384143931867758	2	301.93040426119308	-2
0.28265241383316292	1.976423186164467	302.05659827482629	-2
0.27641986181564204	1.9455126989627125	302.20720134280361	-2
0	1.7178963567972052	303.3838682342963	-2
0.028999784051785087	1.7300717244320594	303.32206390182597	-2
0.15667740187320967	1.7883127764041777	303.00738908332073	-2
0.13965141209512544	1.7665500798197236	303.1193851745827	-2
0.10651705822797047	1.7476264130425054	303.22210610999184	-2
0.073998856961348503	1.7143775193547817	303.3941924304159	-2
0.20955825919928409	1.7985253323416996	302.9361946246417	-2
0.18399549110187924	1.7841629220157813	303.01654243966277	-2
0.22306432214175778	1.8245507085534989	302.80568173781029	-2
0.24158131204189426	1.845841802618249	302.69559802415318	-2
0.25586262214992384	1.8701776564769921	302.57372060733445	-2
0.29127577374370783	1.9009261265099622	302.4113522926088	-2
0.30572126038586001	1.9338623356409035	302.24928117545102	-2
0.34503046480419219	2	301.91677557329405	-2
0.32023576587209857	1.9656476067884472	302.0920016626016	-2
0	1.6867683058261758	303.53930500862793	-2
0.040590795242120212	1.6909472477738903	303.51638108328581	-2
0.18395333224057372	1.7546286702445735	303.15980757286923	-2
0.15585383632725014	1.7320034154439652	303.28237003646746	-2
0.12813220753133706	1.7301729098266272	303.30145728259288	-2
0.10181816897208942	1.7196958071490642	303.36125469636374	-2
0.071956443962703343	1.681757110114477	303.55801689910095	-2
0.21252940428129019	1.769355035118781	303.07450477682283	-2
0.25238625769966605	1.7881511228450773	302.96283760425388	-2
0.26124875735823438	1.8256086319283999	302.7807762437406	-2
0.3059268868965685	1.8739918504340867	302.52937285431221	-2
0.29475033397443806	1.8439611428982128	302.67577284690321	-2
0.32192578628951574	1.90175502655896	302.39146144837417	-2
0.34145986454478749	1.9378895094659561	302.21230718074884	-2
0.37621949028970686	2	301.90201806813525	-2
0.36062497754694955	1.9679456261829178	302.06143287947555	-2
0	1.6245122038841173	303.85572490142607	-2
0.023715239361696148	1.6556402548551465	303.69649422150246	-2
0.057182201318178985	1.6514347491374914	303.71409300136514	-2
0.18296340761537322	1.7251109831012503	303.30423335403538	-2
0.20803035959673483	1.7375239761886907	303.23072726013618	-2
0.14399072005048513	1.7073617933569423	303.40895046420741	-2
0.17201296250589071	1.699371475900666	303.43676332665319	-2
0.11951835786593099	1.695153330882752	303.47844674763735	-2
0.090723634612602605	1.6549979041290164	303.68916965211253	-2
0.23986897926372472	1.7532369464546118	303.13645296120779	-2
0.28965646304275489	1.7926459838443098	302.91821064529074	-2
0.28233580739254521	1.7558264240619132	303.09614307919395	-2
0.29861324897719038	1.8176672806123184	302.79539400261535	-2
0.33609829772569405	1.8632008959393951	302.56134035493011	-2
0.33920590716753041	1.8337864578645386	302.69411350103877	-2
0.36159128918141459	1.9124287770044144	302.31913781985122	-2
0.3654516040866822	1.8802011316636424	302.46459358044768	-2
0.3899662812832782	1.9426177875763044	302.16354901216476	-2
0.40740851577522152	2	301.88644852532678	-2
0.39181400303246416	1.9733981714745124	302.01933828047504	-2
0	1.5933841529130879	304.0165519551133	-2
0.037253412717110301	1.6207281721721034	303.87362698968008	-2
0.076692570306438168	1.6274268601447852	303.83338803202923	-2
0.20681391576917174	1.7084637247281622	303.37370520824646	-2
0.23533419841971803	1.7218254691715706	303.29086175833265	-2
0.14971048353713964	1.6806180581553583	303.54020294832526	-2
0.18044408031751755	1.6714786901357397	303.57198139245571	-2
0.21142373969208017	1.6797456559571857	303.51339868534967	-2
0.1206450005440157	1.6639436375002892	303.63514711912404	-2
0.12057344169592452	1.6327136973133036	303.79460713710648	-2
0.26363001785600232	1.7321975028445142	303.22204303140268	-2
0.32361351072460487	1.8086519481842365	302.82013485713674	-2
0.31970784019353271	1.767533468098353	303.01331093486795	-2
0.30753939649955475	1.7408741013073135	303.14735848304412	-2
0.37069246374803833	1.8389014075161805	302.64844808148513	-2
0.35625250756380433	1.8096145771219834	302.79151599593769	-2
0.39205981533434531	1.9012398508072057	302.35150729591589	-2
0.39323928498186306	1.8607468416619588	302.53329851855142	-2
0.42635280640509554	1.9228052328281184	302.23145683837498	-2
0.42447306346396202	1.962671921618844	302.05083976357395	-2
0.43859754126073613	2	301.86952179993858	-2
0	1.5622561019420587	304.17795051835867	-2
0.032017116449694245	1.5829609105823899	304.06922646505137	-2
0.06703906686897361	1.5980356522191659	303.98681567290265	-2
0.095844609751324264	1.6048554538838855	303.94546047397381	-2
0.23975102444540522	1.6823280432168086	303.48236483437847	-2
0.26002804131118312	1.7022766364624382	303.3692672371991	-2
0.15835002968085357	1.6482421898544708	303.70047740401583	-2
0.20313507458427502	1.6486265013271479	303.67531545344366	-2
0.24447645907864254	1.6542785502983683	303.61941525215474	-2
0.1239683221929663	1.5956182576646378	303.98541872246597	-2
0.15378255013615533	1.6136827754757019	303.88047772005928	-2
0.28683582029277183	1.6940593974300719	303.38841740951057	-2
0.30871657248334872	1.711592586381752	303.28530376777672	-2
0.3404769349778457	1.7863054312245898	302.91030974533771	-2
0.35879722403200476	1.7651368482123844	302.99153352586086	-2
0.33783129011017959	1.7431543965786895	303.11089236190656	-2
0.38749076607541455	1.8001065818389137	302.80870663938686	-2
0.41288539767730065	1.83625985743103	302.62697790755419	-2
0.42181422874583496	1.8737489464782349	302.45409527065516	-2
0.45255798967175243	1.9174259103260047	302.2373310216434	-2
0.44811672365047694	1.8786073841955537	302.41277064452657	-2
0.45447393521609164	1.9441088242090863	302.11650536610586	-2
0.45419205400349344	1.9742292578402587	301.97980411108676	-2
0.4697865667462508	2	301.85201812559075	-2
0	1.5311280509710294	304.34004537037612	-2
0.027423183074381501	1.5549573712343339	304.21509668196211	-2
0.061124780805981507	1.5635566141996049	304.16708300525829	-2
0.1017734317116528	1.5773174949060043	304.08754368221258	-2
0.27602418131802925	1.6537797063520641	303.59699648701064	-2
0.18803086305596017	1.6201841640767485	303.83042755004482	-2
0.22572132562160582	1.6374413498890763	303.71840928909239	-2
0.2551358706335996	1.6301325902376833	303.73472243253354	-2
0.15361335714961141	1.5803266048968738	304.05511637625631	-2
0.12531754137514439	1.5618525340376985	304.16230758880118	-2
0.19055979648808291	1.5832116429300869	304.02348825005669	-2
0.3068977217235202	1.6744711320085577	303.46647640949993	-2
0.3363139246298093	1.6971867125523983	303.3281548185434	-2
0.40297091893563119	1.7748778083020609	302.90684378235778	-2
0.37499105527576543	1.7420768199134891	303.08098322017071	-2
0.3575841987184743	1.7199181552359606	303.20040223633407	-2
0.41768090767732319	1.8058959825972203	302.75649905811355	-2
0.45392242858742193	1.8198919392886157	302.66258349945241	-2
0.45396990883406863	1.8525082294493103	302.52172107464622	-2
0.46849116183308903	1.8959367789918156	302.32082057512736	-2
0.48891768407549885	1.9364754071602173	302.12729099671407	-2
0.4858141571039824	1.8718910811600011	302.41143339471904	-2
0.48521651973039504	1.9730592707147594	301.96584550568718	-2
0.50097559223176547	2	301.8338118425271	-2
0	1.5	304.50171480724123	-2
0.021416556424583042	1.5179537019741411	304.40814584102213	-2
0.042833112849166084	1.5311280509710294	304.33819740177705	-2
0.070603301868514295	1.5343795536781188	304.31818536442819	-2
0.093531465307530426	1.5503812720026708	304.2304915282345	-2
0.30494282465720091	1.644009204767191	303.62031713213668	-2
0.2804128004499441	1.6225347444239187	303.75355637810554	-2
0.20930230230384522	1.6030663874515527	303.90818747261585	-2
0.23441458461077666	1.6137839282890556	303.83566762969519	-2
0.25129285611168917	1.5887920764386263	303.95622755791135	-2
0.17089884284999479	1.5517981151707698	304.20028991499049	-2
0.11878332239420479	1.5301842607870009	304.33163892944151	-2
0.15154765115238727	1.5248202495047729	304.3516853150449	-2
0.20157633579366754	1.549269757422252	304.20068935623777	-2
0.22326990025461249	1.5711075784489115	304.07031910252175	-2
0.34887893180322804	1.6687040223526481	303.45122579538292	-2
0.37752728409819059	1.6999314359616737	303.27141707535372	-2
0.40298668101725343	1.7452783843497901	303.0380307000014	-2
0.42935247928334858	1.7614562055524179	302.93899218213295	-2
0.44337897446702612	1.789026745081685	302.80545633265808	-2
0.40336070944100849	1.7152480097313583	303.17225695271668	-2
0.48297324038092526	1.834720120982906	302.5722294135486	-2
0.49493106691119887	1.8028670139397722	302.69388132075733	-2
0.49708774088345387	1.9037160730465843	302.26500294102226	-2
0.51774058578773741	1.9262652742439734	302.15119052937393	-2
0.51503798238698528	1.9644240690069172	301.98493503279678	-2
0.52198558608726031	1.8809121018130219	302.34202664340415	-2
0.51678612885659414	1.8385014721384363	302.52454976821139	-2
0.53216461771728008	2	301.81475913418217	-2
0	1.4688719490289706	304.66224062360493	-2
0.02468603020873816	1.4930229398166401	304.537400760926	-2
0.04782249176935937	1.504103716085605	304.47885783856219	-2
0.080529677488722196	1.5082410239744213	304.45388386063433	-2
0.32884134541326959	1.6250194354302565	303.69191590177201	-2
0.29310594038089827	1.597522335211075	303.87432078357222	-2
0.27764148786679299	1.574121755637558	304.01527118248418	-2
0.25123069391216513	1.5586347416155144	304.12121577767829	-2
0.20528929960027667	1.5195808763982479	304.36142540921929	-2
0.18212566946068154	1.5006425027763475	304.47282862933343	-2
0.12975988639362557	1.499768958862832	304.49045003939085	-2
0.15628455571610955	1.4797173944272255	304.59175517556508	-2
0.22973400619592979	1.5368340522258772	304.2548930326513	-2
0.37309795528184081	1.6437597792332961	303.54458175374992	-2
0.37692306935641723	1.6717032492264683	303.40464713664835	-2
0.35615660003471661	1.6221402691592621	303.67428025084308	-2
0.40165317487912616	1.6852638868876746	303.31058315384638	-2
0.43179978531874541	1.730619735095478	303.07054669520733	-2
0.45820882581190781	1.7641288120444569	302.89593109453665	-2
0.4584608044001951	1.7367689912111808	303.01223455793121	-2
0.43470057813263929	1.6984225864872478	303.2084932747581	-2
0.52840225124027318	1.7983452267397839	302.67674844083308	-2
0.50613936990111508	1.7729458004795038	302.80514606312175	-2
0.53527575817050688	1.9050312949011521	302.22908271802919	-2
0.53894539491466564	1.9469422121716895	302.0455591809768	-2
0.54438981418919719	1.8534558193617821	302.4362411765627	-2
0.57176296162817675	1.8688280912856599	302.34782258002349	-2
0.54983249072669749	1.8225370028105961	302.55630944161925	-2
0.5633536432027948	2	301.79408510426538	-2
0.56695380596115608	1.9565707428398089	301.98316523819506	-2
0	1.4377438980579413	304.82055450757741	-2
0.033811125433615544	1.4690477006435707	304.66090462571043	-2
0.06787837977537825	1.4853162219924891	304.57477825510193	-2
0.091748564833496568	1.4745544310154426	304.62834118976548	-2
0.32112298073855239	1.5961874698489114	303.8534395378403	-2
0.31287338102623363	1.5675029880316935	304.02093178587995	-2
0.29347716842103588	1.5319610572092943	304.24281312106103	-2
0.2608606272632496	1.5246528066000673	304.30625557001059	-2
0.23245560720295402	1.5070345172552122	304.42008938556961	-2
0.21733568816496368	1.4812119022676875	304.5693753477255	-2
0.18795551777273961	1.4695895377245516	304.63967450573841	-2
0.12666316982696146	1.4681030484822977	304.65752260861285	-2
0.14003098991321924	1.4380548937046136	304.81318461623465	-2
0.17268982170109998	1.4419267053804479	304.79006728078906	-2
0.40678175951572998	1.6351471318245161	303.53995350132323	-2
0.3807133150459831	1.6098365916071662	303.70558620214138	-2
0.41896398310038097	1.6617145606665404	303.39567996024925	-2
0.34637126996183082	1.5802695779082845	303.91099312433721	-2
0.45597531565431793	1.7117746850778899	303.12219424564819	-2
0.48364918392162337	1.7502500606709719	302.92498463360505	-2
0.48179578137761858	1.7224825592318149	303.04244447428084	-2
0.44795621306890054	1.6654139455066093	303.3358878795849	-2
0.47508537336031342	1.6954744185811705	303.165262939576	-2
0.54080185642815359	1.7714971267695443	302.7695024224202	-2
0.56166091597342727	1.7924606740770497	302.66219050022158	-2
0.52451942170083188	1.746810024870419	302.887589645319	-2
0.56153372366914533	1.9133308971263869	302.17241843582798	-2
0.57110302664774559	1.8408003958708696	302.46112532573562	-2
0.60290787766844012	1.8540731417381255	302.37649262464043	-2
0.60118177620609692	1.8906776640911871	302.23195998174168	-2
0.59149041417464987	1.8215561329785042	302.51543658618129	-2
0.59454266868830941	2	301.77359447749268	-2
0.58919276132941334	1.9729209044960991	301.89582062382476	-2
0.60002903459465018	1.9281966208231756	302.0785180013433	-2
0	1.4066158470869121	304.97524399807901	-2
0.034673123396975529	1.4342051204815278	304.83802593714211	-2
0.066043353106219685	1.4493925205495604	304.76007941735992	-2
0.10747632886352831	1.4427222552014287	304.79141674079813	-2
0.33945420396924619	1.5434498337293803	304.13436891854582	-2
0.31932373994350643	1.5262677750996896	304.2563700684355	-2
0.28287092579865131	1.5076822898649525	304.39225134392132	-2
0.26094754298749662	1.4928055895439427	304.48898056051416	-2
0.25269109164393799	1.4620471142928111	304.66781056761431	-2
0.21639071805854862	1.43727420636762	304.81033995391851	-2
0.16099217926495477	1.4009216704364238	305.00215956408539	-2
0.11994579661184297	1.4138288828374725	304.93780876148668	-2
0.19233872959937215	1.4189214007345228	304.90912148982301	-2
0.42156599069588219	1.6094580309965789	303.64291530122483	-2
0.45787626684348998	1.6360228925236913	303.45253944495494	-2
0.40630824393648141	1.5840473136363371	303.80457350368602	-2
0.37687251549523498	1.5737057806284831	303.90778798552128	-2
0.50662140550408397	1.7099064857629152	303.05936433606337	-2
0.47422749575404483	1.6689765591254924	303.27910593144492	-2
0.5042580785568378	1.6673928115918923	303.23687024357872	-2
0.56079285459207617	1.7405989084906808	302.8629942349188	-2
0.58354889721760472	1.7664255428420776	302.73500393202028	-2
0.58975750425952589	1.7936684776331826	302.62424991625852	-2
0.54129897172572627	1.7093846740584335	303.01063810516041	-2
0.63380587141889599	1.8739881795425168	302.26788811478582	-2
0.63081542292882919	1.8260111957082816	302.45510894003644	-2
0.62835814184451089	1.9035701592441043	302.15542241671483	-2
0.61727556706551068	1.7888228077270436	302.60943192964686	-2
0.62573169417382402	2	301.75216255138793	-2
0.61506973805069542	1.9633146045932026	301.91805758195977	-2
0.63734334653740621	1.9322762104738977	302.03065691399155	-2
0	1.3754877961158827	305.12566271215417	-2
0.037080497698794575	1.3910518216013974	305.051443558259	-2
0.050528543763968883	1.4134458409051083	304.94109241789562	-2
0.084108974632912073	1.4295912841203466	304.85934982888739	-2
0.37509133677983231	1.5318941369357482	304.16452526086721	-2
0.35486188683375358	1.5093010025328009	304.33241255074699	-2
0.3258082008109125	1.5006082644281118	304.4085915784438	-2
0.29989909480661719	1.4873846942792257	304.50532196964389	-2
0.27840553407729057	1.4425254013430362	304.77468694285028	-2
0.25304527720633591	1.4225457317363883	304.88798306259935	-2
0.22621546388100086	1.4087498262604758	304.96141054940495	-2
0.11547971502275652	1.3826781411492219	305.09212067405826	-2
0.17757639780987491	1.3797214442102093	305.10880896185586	-2
0.14609879037237047	1.3721843278174124	305.14423036116938	-2
0.075024246456969895	1.4043737632421842	304.98548693193709	-2
0.089388304599697696	1.3825920520405484	305.09233595571897	-2
0.20230313489196217	1.390355087521026	305.05603198706791	-2
0.42817417807376784	1.5675976826254032	303.85657210097696	-2
0.45097645312590801	1.6057799754521174	303.60748192733428	-2
0.48558872298211275	1.6450225401392675	303.36331127957823	-2
0.48169211881785168	1.6161471118579986	303.49820740070044	-2
0.39944862570391076	1.5521714206039765	304.00139583799131	-2
0.52870281788241014	1.68316294235727	303.13239307650298	-2
0.51397445300804434	1.626491390061346	303.38608826054679	-2
0.54783828911900589	1.6322227179032014	303.29379570233698	-2
0.58849388146467252	1.7327735159764646	302.85256005284003	-2
0.5847666220302703	1.7042307201269595	302.9614742759814	-2
0.6125270996483333	1.7486161193463154	302.76148194597249	-2
0.55545046402141884	1.6717259090411227	303.1295047690669	-2
0.66241014626616612	1.8508994331708453	302.32709812908143	-2
0.66694494228457157	1.8857805788597111	302.19015227955947	-2
0.65753869067317394	1.8245852691946978	302.43034638725447	-2
0.64285746511034836	1.8005677840541814	302.53547323721102	-2
0.65997119018878259	1.9140115089286207	302.08531190304001	-2
0.65091987787123462	1.7644656219016557	302.65239597466353	-2
0.65692071965933874	2	301.73033815070596	-2
0.64552310895160425	1.9616572600953808	301.90195748287948	-2
0.67558253279581149	1.9565011347897774	301.90033285424136	-2
0	1.3443597451448535	305.27136761139496	-2
0.033793441805901124	1.3469298538226306	305.25998785633152	-2
0.061879199647877518	1.381116737031771	305.09923495476141	-2
0.38417584415445527	1.501531042850111	304.36048316521794	-2
0.40543438210630722	1.5227428880041365	304.18685542576844	-2
0.37888952755439342	1.4738274013700403	304.55644052891608	-2
0.35111598769963093	1.4689215499262742	304.59953603614258	-2
0.32620961336976562	1.4749790022645679	304.57010810563258	-2
0.30618125205811725	1.4589825978479454	304.67258603642364	-2
0.30616832464484772	1.4323788896646823	304.83067506077964	-2
0.29070337460624535	1.4107318857952835	304.95330333639464	-2
0.23632312911467154	1.3854586343256874	305.08361747966961	-2
0.26167081354715643	1.3839959613853907	305.0936504760553	-2
0.10261747184320946	1.3601029826235553	305.19985212080638	-2
0.22074830254728914	1.3654069686688131	305.18257571100821	-2
0.17760924604125938	1.3528051885682735	305.23941785503604	-2
0.14868974747235947	1.3410896707914641	305.29133826736302	-2
0.11756761132992657	1.3388528435323284	305.2999861472419	-2
0.076664700600122482	1.3588665575862868	305.20493165445276	-2
0.45487101321391299	1.573596718347245	303.76675464078448	-2
0.42981007971561458	1.5402840731621663	304.02004421647797	-2
0.47840091171882737	1.5884933127596643	303.63355050562512	-2
0.52751918029399114	1.5954157797686284	303.48497443769566	-2
0.55093307452541651	1.6065022486497096	303.38340520347458	-2
0.58546481615266577	1.6134647504847857	303.27635638089919	-2
0.58719428079836034	1.6470119977105373	303.15897301820928	-2
0.62818283858932022	1.6986600824773219	302.91042716749303	-2
0.58390707396751673	1.675533390283209	303.06542882415164	-2
0.61172881326350148	1.6762150628619232	303.01339912483996	-2
0.63938534210571885	1.7379813079336248	302.75946955617667	-2
0.69548053992776493	1.8486499943305355	302.30079853656235	-2
0.68903798675005223	1.9131512947024274	302.06297988319443	-2
0.7003218389902558	1.8814413458643917	302.17396691171905	-2
0.67590824045937303	1.8051243867375626	302.47942702077631	-2
0.67620867983192234	1.7517485804050037	302.66124676524521	-2
0.68810974514485335	2	301.7078333629803	-2
0.70143439284400388	1.9726093577992703	301.81296679951026	-2
0.7120144258540928	1.9440461573836951	301.92052958839503	-2
0	1.3132316941738242	305.41055015348542	-2
0.033628548037498263	1.3133016373192379	305.41053026855985	-2
0.060698659442829928	1.3332539104643422	305.32277095507942	-2
0.41380700631881462	1.4928574219260173	304.39745153100796	-2
0.44360334096835119	1.5009454323487517	304.29844924183186	-2
0.40550743519147803	1.4645041032692598	304.61578613567394	-2
0.38361548809883783	1.444666356112831	304.75521590872614	-2
0.33020687517768255	1.4494377181953373	304.72695366350302	-2
0.35348921803365568	1.4382008233839103	304.79548746559618	-2
0.32925925578734061	1.419166533508762	304.90885354460454	-2
0.29404645661929452	1.377970427949603	305.1301212498031	-2
0.32005459221621413	1.3913870095956984	305.06409905974351	-2
0.2495322348283722	1.3538260323277702	305.24344825669033	-2
0.2781570603596295	1.3541582857624102	305.24740272723733	-2
0.090765610685129935	1.3358808108855176	305.31190011983267	-2
0.22338282033760032	1.3344926975289366	305.33131657803148	-2
0.19666346007685406	1.3196028871388521	305.39541998750173	-2
0.16800876612253784	1.3089005892276235	305.43976559327774	-2
0.13509330064438313	1.3126364642981603	305.419097455459	-2
0.10832754630880463	1.2959618512308644	305.49001296023312	-2
0.47076072782020184	1.5480832485575111	303.87085205411955	-2
0.47097692617805653	1.518027077323453	304.08441115376007	-2
0.49777723977494498	1.5684902489992949	303.68368185994666	-2
0.56646065615973695	1.5857654590254435	303.41699379265151	-2
0.52896939034141954	1.5553225867819487	303.64716793892882	-2
0.60151982982289465	1.5839580498824617	303.32632006958687	-2
0.61376706863915598	1.6249924288051738	303.17431181365561	-2
0.62663267946487	1.6527121135318921	303.0616279253079	-2
0.6409732703270693	1.6752284346605653	302.96359763411863	-2
0.66546559776809699	1.7255601700522472	302.76213673240596	-2
0.67396712046566876	1.6944865496107482	302.84652846427525	-2
0.71882986752039424	1.8336116512198213	302.32850687423951	-2
0.72651219304547199	1.8603010636725192	302.2253808513791	-2
0.72055044676997015	1.906502241219824	302.05980297203945	-2
0.73845300489685084	1.8853271293415834	302.12184519481866	-2
0.72771167194934538	1.7778494893670083	302.50611000120711	-2
0.72859206976420665	1.8076108383499438	302.4066269528771	-2
0.70272250099166189	1.7616613971865145	302.59208056476052	-2
0.70081143945517688	1.7263582347830355	302.70581430462113	-2
0.71929877063036796	2	301.68547014775686	-2
0.73560880761544534	1.9690267647996664	301.80088230903232	-2
0.73922888332113812	1.9419747305661546	301.90558137279407	-2
0	1.2821036432027948	305.54378060332112	-2
0.027061322305848238	1.2866572713094382	305.52520665131391	-2
0.0540315695843765	1.292962037237156	305.49936932290245	-2
0.078182379944817873	1.3065223716947669	305.44173911127251	-2
0.43453881235830283	1.4699788360980761	304.57365621048837	-2
0.47209542154984108	1.4858028729081345	304.42232225487942	-2
0.41517412534931958	1.4318381233945698	304.84982114419927	-2
0.38892890433150124	1.4125051532796509	304.96240700622997	-2
0.35815465297896465	1.4074208780573345	304.98311825985297	-2
0.32288514749951308	1.3620701378316371	305.22000861469434	-2
0.34691552877588583	1.3797715945178204	305.13520509123532	-2
0.25500548434518844	1.321769624974783	305.39690582324243	-2
0.28860546388368324	1.3275064210464416	305.37874905564706	-2
0.22859445066226403	1.3017860466301265	305.48118305904069	-2
0.19638431015266303	1.2890160804811437	305.53050950278822	-2
0.1659737791468967	1.2758081721875631	305.58104828019918	-2
0.13430847218881456	1.2777554003746541	305.5689243580419	-2
0.083591827749580849	1.2736585444842721	305.58168097892423	-2
0.11688717430412916	1.2528949016069222	305.66898545114958	-2
0.49764025154984343	1.5346329186341003	303.86626083844419	-2
0.48527584662049611	1.5049315303395943	304.17617200751994	-2
0.49001131932285968	1.5143332508203891	304.04731094731352	-2
0.58399543338083526	1.5535391755591881	303.46614855431079	-2
0.55040236227433847	1.5402188380686299	303.62599814128816	-2
0.51482225673799564	1.5219814194290233	303.86026543561445	-2
0.53432918873748225	1.5195029358790928	303.77309751189034	-2
0.63235635520699762	1.6007366400493726	303.20061252780289	-2
0.63376424086932148	1.5614234147855601	303.29138713910424	-2
0.65752584757355126	1.6275428709138837	303.07103557209223	-2
0.66497864204605572	1.6635502758981655	302.95457214329758	-2
0.6974527061047392	1.6724349500608386	302.86937794128028	-2
0.72049813969778875	1.696978997444526	302.76121277702168	-2
0.76297797279494783	1.8353543390860174	302.27301645085277	-2
0.76506163175628739	1.8775253393419986	302.12408853923785	-2
0.75089290445040946	1.9172994774695407	301.99087295481411	-2
0.74904490397225698	1.7383030920144051	302.59820247089709	-2