[Format]      =  1
[Precision]   =  1e-008
[MinAngle]    =  30
[Depth]       =  20
[LengthUnits] =  meters
[ProblemType] =  planar
[Coordinates] =  cartesian
[PrevSoln] = "Temp0.anh"
[dT] = 10
[Comment]     =  "Add comments here."
[PointProps]   = 0
[BdryProps]   = 2
  <BeginBdry>
    <BdryName> = "Outer Boundary"
    <BdryType> = 2
    <Tset> = 0
    <qs>   = 0
    <beta> = 0
    <h>    = 5
    <Tinf> = 300
  <EndBdry>
  <BeginBdry>
    <BdryName> = "Inner Boundary"
    <BdryType> = 2
    <Tset> = 0
    <qs>   = 0
    <beta> = 0
    <h>    = 10
    <Tinf> = 800
  <EndBdry>
[BlockProps]  = 2
  <BeginBlock>
    <BlockName> = "Brick, Common"
    <Kx> = 5
    <Ky> = 2
    <Kt> = 3
    <qv> = 1000000
  <EndBlock>
  <BeginBlock>
    <BlockName> = "Air"
    <Kx> = 0.018100000000000002
    <Ky> = 0.018100000000000002
    <Kt> = 3
    <qv> = 0
    <TKPoints> = 18
      200	0.018100000000000002
      250	0.0223
      300	0.026100000000000002
      350	0.029700000000000001
      400	0.033099999999999997
      450	0.036299999999999999
      500	0.0395
      550	0.042599999999999999
      600	0.045600000000000002
      700	0.051299999999999998
      800	0.056899999999999999
      900	0.0625
      1000	0.067199999999999996
      1200	0.075899999999999995
      1400	0.083500000000000005
      1600	0.090399999999999994
      1800	0.097000000000000003
      2000	0.1032
  <EndBlock>
[ConductorProps]  = 0
[NumPoints] = 12
0	1	0	0	0
0	2	0	0	0
1	1	0	0	0
1	0	0	0	0
2	0	0	0	0
2	2	0	0	0
0	0	0	0	0
1	0.5	0	0	0
1.5	0.5	0	0	0
1.5	1	0	0	0
0.5	1.5	0	0	0
1.5	1.5	0	0	0
[NumSegments] = 12
1	5	-1	1	0	0	0
5	4	-1	1	0	0	0
4	3	-1	0	0	0	0
1	0	-1	0	0	0	0
0	6	-1	0	0	0	0
6	3	-1	0	0	0	0
10	2	-1	0	0	0	0
2	7	-1	0	0	0	0
7	8	-1	0	0	0	0
8	9	-1	0	0	0	0
9	11	-1	0	0	0	0
10	11	-1	0	0	0	0
[NumArcSegments] = 0
[NumHoles] = 0
[NumBlockLabels] = 2
0.5	0.5	1	-1	0	0
1.1619999999999999	1.224	2	-1	0	0
[Solution]
4401
0	2	171085.37350407554	-2
0	1.9980488155364688	171917.62395653469	-2
0.0019511844635310908	2	171085.46634164438	-2
0	1.9902668027937116	175227.71944326934	-2
0.0044345040193632564	1.9955654959806368	172974.01552703575	-2
0.009748440834909753	2	171084.71028856264	-2
0	1.9824847900509541	178528.21968355999	-2
0.010032178671957399	1.986375796422333	176873.58153655095	-2
0.017545697206288416	2	171078.46200885027	-2
0	1.9669207645654394	185099.85509327729	-2
0.0087889314765474246	1.9747027773081967	181812.28711940956	-2
0.030103597769800126	1.978335352557937	180230.83356821103	-2
0.033140209949045742	2	171040.44305480551	-2
0	1.9357927135944102	198093.94487071663	-2
0.018189827535304997	1.9552314199998277	189983.35281396302	-2
0.057620962067833278	1.972730658131026	182469.16862006538	-2
0.064329235434560386	2	170885.69692937197	-2
0	1.904664662623381	210933.07458284142	-2
0.035584765659103047	1.9207241088285287	204251.99590697122	-2
0.065103611479269158	1.9456635582620845	193739.15230478108	-2
0.090352078086678514	1.9672112820813508	184525.84231179184	-2
0.095518260920075038	2	170624.37222393922	-2
0	1.8735366116523515	223629.43930311035	-2
0.028440269058676141	1.8891006371378662	217242.23069761883	-2
0.072196122994275413	1.9202092090690466	204203.3415107925	-2
0.055710613715755614	1.899558407722381	212810.91511771391	-2
0.097576006351747069	1.9275637405424131	200917.70691586213	-2
0.12233189172207538	1.968302139329994	183693.23887046054	-2
0.12670728640558968	2	170260.24819721811	-2
0	1.8424085606813223	236229.63776256758	-2
0.027717584786795323	1.8566546248864055	230409.78479637919	-2
0.059333458407342547	1.8493264246443031	233186.56041445053	-2
0.084199396795800283	1.8931221120538768	215168.74914994728	-2
0.13298161321994853	1.9381279470175332	196055.94328785315	-2
0.11535868829963414	1.8951764640453859	213918.6847472167	-2
0.15789631189110431	1.9795439342771579	178411.7706178808	-2
0.16449391005589142	1.9473730175932547	191682.05604659044	-2
0.18908533737661898	2	169263.01364362944	-2
0	1.8112805097102931	248753.13313136381	-2
0.035983526281860606	1.8204522803322334	244967.5236935124	-2
0.089247631829413421	1.8410891062693628	236151.35386553855	-2
0.099399901546765645	1.8683354705000199	225021.73624896817	-2
0.071215437613386709	1.8158393308784539	246517.78248753343	-2
0.15962130876179756	1.9191804244343642	203329.31787559442	-2
0.14655207741990278	1.8937292998123372	213956.79883797822	-2
0.11961841704092709	1.8474394284007167	233126.4932309491	-2
0.1965135201517168	1.9546696436038136	188002.08016543061	-2
0.18817402348204629	1.9173618990707773	203459.54997682516	-2
0.22027436286213362	2	168576.78721608609	-2
0.21912502328592515	1.9717099036116565	180416.4287861207	-2
0	1.7801524587392636	261221.47345008727	-2
0.03907182935287655	1.7921535808822584	256293.73656109284	-2
0.1114153937371084	1.8196268181113273	244408.61083393497	-2
0.098844384803518592	1.7934963642916162	255045.19225929922	-2
0.064396369373751053	1.779152747095551	261255.94168223179	-2
0.17629377183947434	1.8898167327238846	214879.73963862521	-2
0.15764704515960803	1.863070363808627	226068.03037707787	-2
0.1449848939989539	1.8360614489865164	237159.72945194019	-2
0.21976753253019027	1.9413921674933106	192873.66614799076	-2
0.22642216835696943	1.9154546216268236	203220.69509023777	-2
0.20558121164886897	1.8833265526354819	216726.10681786385	-2
0.25146338834764825	2	167852.33550444359	-2
0.24243815273396241	1.955642902321364	186452.46862879358	-2
0	1.7490244077682344	273671.91527673439	-2
0.031964323275710936	1.7645884332537489	267355.27976381336	-2
0.13841382187299175	1.8090477935521352	248068.2812764406	-2
0.1240952270873584	1.7873639399282979	257007.57636150884	-2
0.089127853773466659	1.7682943985064095	265254.04362061329	-2
0.060062628976664936	1.7454109338596786	274777.0596086838	-2
0.18563840532639064	1.8634288083741317	225218.15644670778	-2
0.172721133762021	1.8341594572363435	237248.63303161436	-2
0.23364850506268489	1.8879433847239508	214038.80881718377	-2
0.2647098842512246	1.9162350735613627	201736.56648371537	-2
0.21167734929188609	1.853151740521146	228544.47807817551	-2
0.31384143931867758	2	166060.81525722446	-2
0.28265241383316292	1.976423186164467	176736.91255626659	-2
0.27641986181564204	1.9455126989627125	189539.43820109722	-2
0	1.7178963567972052	286128.02954329428	-2
0.028999784051785087	1.7300717244320594	281165.99572702957	-2
0.15667740187320967	1.7883127764041777	255831.39159055686	-2
0.13965141209512544	1.7665500798197236	264912.34499823069	-2
0.10651705822797047	1.7476264130425054	273180.2692923295	-2
0.073998856961348503	1.7143775193547817	286995.99724952155	-2
0.20955825919928409	1.7985253323416996	250154.41180119186	-2
0.18399549110187924	1.7841629220157813	256657.83990424813	-2
0.22306432214175778	1.8245507085534989	239463.60517909969	-2
0.24158131204189426	1.845841802618249	230417.00949003189	-2
0.25586262214992384	1.8701776564769921	220328.09973575023	-2
0.29127577374370783	1.9009261265099622	206863.61386089851	-2
0.30572126038586001	1.9338623356409035	193238.25649541509	-2
0.34503046480419219	2	165036.10334303969	-2
0.32023576587209857	1.9656476067884472	179926.34733598336	-2
0	1.6867683058261758	298574.56062365539	-2
0.040590795242120212	1.6909472477738903	296752.30208807875	-2
0.18395333224057372	1.7546286702445735	268317.85627276718	-2
0.15585383632725014	1.7320034154439652	278153.44135295908	-2
0.12813220753133706	1.7301729098266272	279630.9060020977	-2
0.10181816897208942	1.7196958071490642	284390.37031020073	-2
0.071956443962703343	1.681757110114477	300088.93061961094	-2
0.21252940428129019	1.769355035118781	261480.67046101022	-2
0.25238625769966605	1.7881511228450773	252517.01162673673	-2
0.26124875735823438	1.8256086319283999	237570.52385568194	-2
0.3059268868965685	1.8739918504340867	216840.50187877537	-2
0.29475033397443806	1.8439611428982128	229006.72621521732	-2
0.32192578628951574	1.90175502655896	205336.6398158239	-2
0.34145986454478749	1.9378895094659561	190273.53440660148	-2
0.37621949028970686	2	163921.84676743927	-2
0.36062497754694955	1.9679456261829178	177512.13414230192	-2
0	1.6245122038841173	323630.91396560468	-2
0.023715239361696148	1.6556402548551465	311044.50811600755	-2
0.057182201318178985	1.6514347491374914	312463.2133918262	-2
0.18296340761537322	1.7251109831012503	279986.82242036611	-2
0.20803035959673483	1.7375239761886907	274141.69110995508	-2
0.14399072005048513	1.7073617933569423	288293.8076361639	-2
0.17201296250589071	1.699371475900666	290592.16920924495	-2
0.11951835786593099	1.695153330882752	293809.73044764635	-2
0.090723634612602605	1.6549979041290164	310524.973203981	-2
0.23986897926372472	1.7532369464546118	266628.83295196842	-2
0.28965646304275489	1.7926459838443098	249027.81741467339	-2
0.28233580739254521	1.7558264240619132	263545.85578187427	-2
0.29861324897719038	1.8176672806123184	238951.75800301021	-2
0.33609829772569405	1.8632008959393951	219676.66551177527	-2
0.33920590716753041	1.8337864578645386	230773.19974745874	-2
0.36159128918141459	1.9124287770044144	199434.83258074708	-2
0.3654516040866822	1.8802011316636424	211726.63084088662	-2
0.3899662812832782	1.9426177875763044	186386.0967355849	-2
0.40740851577522152	2	162746.54915602723	-2
0.39181400303246416	1.9733981714745124	174073.84134825727	-2
0	1.5933841529130879	336235.43040138989	-2
0.037253412717110301	1.6207281721721034	325039.53113627766	-2
0.076692570306438168	1.6274268601447852	321890.59112513193	-2
0.20681391576917174	1.7084637247281622	285645.11495255219	-2
0.23533419841971803	1.7218254691715706	279099.85062180442	-2
0.14971048353713964	1.6806180581553583	298792.26917547546	-2
0.18044408031751755	1.6714786901357397	301392.00535746617	-2
0.21142373969208017	1.6797456559571857	296824.29023778089	-2
0.1206450005440157	1.6639436375002892	306279.64023394033	-2
0.12057344169592452	1.6327136973133036	318884.29345204943	-2
0.26363001785600232	1.7321975028445142	273667.45567979052	-2
0.32361351072460487	1.8086519481842365	241133.88215176176	-2
0.31970784019353271	1.767533468098353	256988.07388488555	-2
0.30753939649955475	1.7408741013073135	267840.48418313416	-2
0.37069246374803833	1.8389014075161805	227162.45011867408	-2
0.35625250756380433	1.8096145771219834	238959.65667271867	-2
0.39205981533434531	1.9012398508072057	202349.72173896286	-2
0.39323928498186306	1.8607468416619588	217668.41984748136	-2
0.42635280640509554	1.9228052328281184	192384.3105157846	-2
0.42447306346396202	1.962671921618844	176961.59446457404	-2
0.43859754126073613	2	161465.29565403413	-2
0	1.5622561019420587	348821.45596105763	-2
0.032017116449694245	1.5829609105823899	340353.20388110587	-2
0.06703906686897361	1.5980356522191659	333923.20089437097	-2
0.095844609751324264	1.6048554538838855	330701.31041886035	-2
0.23975102444540522	1.6823280432168086	294449.10638799524	-2
0.26002804131118312	1.7022766364624382	285497.88075299928	-2
0.15835002968085357	1.6482421898544708	311522.38053000334	-2
0.20313507458427502	1.6486265013271479	309640.59734865854	-2
0.24447645907864254	1.6542785502983683	305354.45329483226	-2
0.1239683221929663	1.5956182576646378	333852.9069607564	-2
0.15378255013615533	1.6136827754757019	325674.68600735388	-2
0.28683582029277183	1.6940593974300719	287155.80419349403	-2
0.30871657248334872	1.711592586381752	278993.33878347417	-2
0.3404769349778457	1.7863054312245898	248650.3810180937	-2
0.35879722403200476	1.7651368482123844	255449.27919829512	-2
0.33783129011017959	1.7431543965786895	265062.04453729861	-2
0.38749076607541455	1.8001065818389137	240587.55845135232	-2
0.41288539767730065	1.83625985743103	225648.56655374233	-2
0.42181422874583496	1.8737489464782349	211201.69581033863	-2
0.45255798967175243	1.9174259103260047	193048.02090523543	-2
0.44811672365047694	1.8786073841955537	207890.97758603451	-2
0.45447393521609164	1.9441088242090863	182757.9278468797	-2
0.45419205400349344	1.9742292578402587	171042.52742903959	-2
0.4697865667462508	2	160137.92940620054	-2
0	1.5311280509710294	361395.88459510211	-2
0.027423183074381501	1.5549573712343339	351708.60272144323	-2
0.061124780805981507	1.5635566141996049	347981.59691435518	-2
0.1017734317116528	1.5773174949060043	341800.77003959479	-2
0.27602418131802925	1.6537797063520641	303714.08708174294	-2
0.18803086305596017	1.6201841640767485	321808.74942676362	-2
0.22572132562160582	1.6374413498890763	313104.40288919699	-2
0.2551358706335996	1.6301325902376833	314485.03147707676	-2
0.15361335714961141	1.5803266048968738	339311.98154642578	-2
0.12531754137514439	1.5618525340376985	347628.63332596119	-2
0.19055979648808291	1.5832116429300869	336891.84020208957	-2
0.3068977217235202	1.6744711320085577	293496.09374450054	-2
0.3363139246298093	1.6971867125523983	282606.68959967094	-2
0.40297091893563119	1.7748778083020609	248800.08683555355	-2
0.37499105527576543	1.7420768199134891	262872.62607553997	-2
0.3575841987184743	1.7199181552359606	272433.15008896199	-2
0.41768090767732319	1.8058959825972203	236468.83814724151	-2
0.45392242858742193	1.8198919392886157	228921.79797690391	-2
0.45396990883406863	1.8525082294493103	217114.13021975115	-2
0.46849116183308903	1.8959367789918156	200248.57623911084	-2
0.48891768407549885	1.9364754071602173	183910.48977873757	-2
0.4858141571039824	1.8718910811600011	208052.55943946287	-2
0.48521651973039504	1.9730592707147594	170039.38965372625	-2
0.50097559223176547	2	158760.33655483188	-2
0	1.5	373891.46759879182	-2
0.021416556424583042	1.5179537019741411	366665.04125984205	-2
0.042833112849166084	1.5311280509710294	361249.96285675577	-2
0.070603301868514295	1.5343795536781188	359697.77721208485	-2
0.093531465307530426	1.5503812720026708	352908.7092131931	-2
0.30494282465720091	1.644009204767191	305679.79794028943	-2
0.2804128004499441	1.6225347444239187	316048.89605551492	-2
0.20930230230384522	1.6030663874515527	327931.39925131621	-2
0.23441458461077666	1.6137839282890556	322323.09081705241	-2
0.25129285611168917	1.5887920764386263	331765.48834406852	-2
0.17089884284999479	1.5517981151707698	350586.66563071834	-2
0.11878332239420479	1.5301842607870009	360729.08509300905	-2
0.15154765115238727	1.5248202495047729	362268.29200583842	-2
0.20157633579366754	1.549269757422252	350621.83641486958	-2
0.22326990025461249	1.5711075784489115	340568.49312171899	-2
0.34887893180322804	1.6687040223526481	292541.28875186172	-2
0.37752728409819059	1.6999314359616737	278325.5697901948	-2
0.40298668101725343	1.7452783843497901	259567.25218688598	-2
0.42935247928334858	1.7614562055524179	251652.57961425791	-2
0.44337897446702612	1.789026745081685	240727.72712047785	-2
0.40336070944100849	1.7152480097313583	270499.88326123182	-2
0.48297324038092526	1.834720120982906	221583.72444247446	-2
0.49493106691119887	1.8028670139397722	231880.79025077916	-2
0.49708774088345387	1.9037160730465843	195710.49783691813	-2
0.51774058578773741	1.9262652742439734	186152.68682382052	-2
0.51503798238698528	1.9644240690069172	171876.76892334063	-2
0.52198558608726031	1.8809121018130219	202451.25808141907	-2
0.51678612885659414	1.8385014721384363	217852.45907322201	-2
0.53216461771728008	2	157319.46756846362	-2
0	1.4688719490289706	386255.24490794807	-2
0.02468603020873816	1.4930229398166401	376639.76835323201	-2
0.04782249176935937	1.504103716085605	372121.98622054129	-2
0.080529677488722196	1.5082410239744213	370183.6816039859	-2
0.32884134541326959	1.6250194354302565	311442.67798628449	-2
0.29310594038089827	1.597522335211075	325519.38162362698	-2
0.27764148786679299	1.574121755637558	336400.01797890704	-2
0.25123069391216513	1.5586347416155144	344526.23347648891	-2
0.20528929960027667	1.5195808763982479	362991.03089482046	-2
0.18212566946068154	1.5006425027763475	371565.08863729949	-2
0.12975988639362557	1.499768958862832	372965.51568467339	-2
0.15628455571610955	1.4797173944272255	380722.06672466954	-2
0.22973400619592979	1.5368340522258772	354801.35940555454	-2
0.37309795528184081	1.6437597792332961	300101.59698388231	-2
0.37692306935641723	1.6717032492264683	289011.56507450418	-2
0.35615660003471661	1.6221402691592621	310220.07323504501	-2
0.40165317487912616	1.6852638868876746	281661.59438348201	-2
0.43179978531874541	1.730619735095478	262461.27304062701	-2
0.45820882581190781	1.7641288120444569	248348.19631272441	-2
0.4584608044001951	1.7367689912111808	257921.9095520041	-2
0.43470057813263929	1.6984225864872478	273712.4127491765	-2
0.52840225124027318	1.7983452267397839	230744.73298562958	-2
0.50613936990111508	1.7729458004795038	241250.64962361575	-2
0.53527575817050688	1.9050312949011521	192940.29793702907	-2
0.53894539491466564	1.9469422121716895	177256.75691382374	-2
0.54438981418919719	1.8534558193617821	210619.18548019894	-2
0.57176296162817675	1.8688280912856599	203348.55871397856	-2
0.54983249072669749	1.8225370028105961	220814.58269092726	-2
0.5633536432027948	2	155738.14709443256	-2
0.56695380596115608	1.9565707428398089	172088.92405677578	-2
0	1.4377438980579413	398420.48909484345	-2
0.033811125433615544	1.4690477006435707	386147.42357271363	-2
0.06787837977537825	1.4853162219924891	379502.29071928683	-2
0.091748564833496568	1.4745544310154426	383605.17458834394	-2
0.32112298073855239	1.5961874698489114	323999.59966076858	-2
0.31287338102623363	1.5675029880316935	336916.37900817324	-2
0.29347716842103588	1.5319610572092943	353883.52125940862	-2
0.2608606272632496	1.5246528066000673	358733.33682203549	-2
0.23245560720295402	1.5070345172552122	367458.63796161092	-2
0.21733568816496368	1.4812119022676875	378896.94434229488	-2
0.18795551777273961	1.4695895377245516	384330.39695788227	-2
0.12666316982696146	1.4681030484822977	385806.13190226874	-2
0.14003098991321924	1.4380548937046136	397707.5426229536	-2
0.17268982170109998	1.4419267053804479	395860.13858204836	-2
0.40678175951572998	1.6351471318245161	300007.19856169494	-2
0.3807133150459831	1.6098365916071662	312826.48314667167	-2
0.41896398310038097	1.6617145606665404	288641.18180020852	-2
0.34637126996183082	1.5802695779082845	328574.96724110295	-2
0.45597531565431793	1.7117746850778899	266893.82445726119	-2
0.48364918392162337	1.7502500606709719	250973.03830721442	-2
0.48179578137761858	1.7224825592318149	260629.73425663455	-2
0.44795621306890054	1.6654139455066093	284125.44381425431	-2
0.47508537336031342	1.6954744185811705	270598.69285863242	-2
0.54080185642815359	1.7714971267695443	238622.44877454534	-2
0.56166091597342727	1.7924606740770497	229843.39299084386	-2
0.52451942170083188	1.746810024870419	248289.54108805142	-2
0.56153372366914533	1.9133308971263869	188301.16385051882	-2
0.57110302664774559	1.8408003958708696	212960.59339005046	-2
0.60290787766844012	1.8540731417381255	206060.44122579819	-2
0.60118177620609692	1.8906776640911871	193711.81556385924	-2
0.59149041417464987	1.8215561329785042	217754.97419643495	-2
0.59454266868830941	2	154169.11940773152	-2
0.58919276132941334	1.9729209044960991	164713.30608468439	-2
0.60002903459465018	1.9281966208231756	180544.72757428477	-2
0	1.4066158470869121	410288.2693656261	-2
0.034673123396975529	1.4342051204815278	399752.59475019324	-2
0.066043353106219685	1.4493925205495604	393747.70528499165	-2
0.10747632886352831	1.4427222552014287	396100.87843476637	-2
0.33945420396924619	1.5434498337293803	345653.40275584412	-2
0.31932373994350643	1.5262677750996896	354922.24144557986	-2
0.28287092579865131	1.5076822898649525	365269.78651507769	-2
0.26094754298749662	1.4928055895439427	372672.26814097277	-2
0.25269109164393799	1.4620471142928111	386292.39674155152	-2
0.21639071805854862	1.43727420636762	397271.14322469919	-2
0.16099217926495477	1.4009216704364238	412100.95465142105	-2
0.11994579661184297	1.4138288828374725	407288.8554213476	-2
0.19233872959937215	1.4189214007345228	404888.44591431192	-2
0.42156599069588219	1.6094580309965789	308259.30447014904	-2
0.45787626684348998	1.6360228925236913	293578.82569557335	-2
0.40630824393648141	1.5840473136363371	320694.59560370696	-2
0.37687251549523498	1.5737057806284831	328473.15154943155	-2
0.50662140550408397	1.7099064857629152	262288.19702253834	-2
0.47422749575404483	1.6689765591254924	279830.36451513361	-2
0.5042580785568378	1.6673928115918923	276761.17735229258	-2
0.56079285459207617	1.7405989084906808	246640.54903183517	-2
0.58354889721760472	1.7664255428420776	236187.02951296809	-2
0.58975750425952589	1.7936684776331826	226931.61707766142	-2
0.54129897172572627	1.7093846740584335	258667.84144394603	-2
0.63380587141889599	1.8739881795425168	197069.17805111452	-2
0.63081542292882919	1.8260111957082816	213021.23357584298	-2
0.62835814184451089	1.9035701592441043	187378.39724252827	-2
0.61727556706551068	1.7888228077270436	225970.50645850913	-2
0.62573169417382402	2	152526.73812982091	-2
0.61506973805069542	1.9633146045932026	166825.5593421988	-2
0.63734334653740621	1.9322762104738977	176715.69367527679	-2
0	1.3754877961158827	421820.40246017982	-2
0.037080497698794575	1.3910518216013974	416116.1559828695	-2
0.050528543763968883	1.4134458409051083	407645.84818901296	-2
0.084108974632912073	1.4295912841203466	401341.14530977939	-2
0.37509133677983231	1.5318941369357482	348008.33977160079	-2
0.35486188683375358	1.5093010025328009	360650.71898180211	-2
0.3258082008109125	1.5006082644281118	366443.27733142977	-2
0.29989909480661719	1.4873846942792257	373811.88625798648	-2
0.27840553407729057	1.4425254013430362	394291.94934810273	-2
0.25304527720633591	1.4225457317363883	403018.30189585278	-2
0.22621546388100086	1.4087498262604758	408734.70823402982	-2
0.11547971502275652	1.3826781411492219	419107.81756673491	-2
0.17757639780987491	1.3797214442102093	420185.70716183656	-2
0.14609879037237047	1.3721843278174124	423007.36397315218	-2
0.075024246456969895	1.4043737632421842	411020.09585300111	-2
0.089388304599697696	1.3825920520405484	419180.89179960993	-2
0.20230313489196217	1.390355087521026	416053.4975877527	-2
0.42817417807376784	1.5675976826254032	324888.07386287249	-2
0.45097645312590801	1.6057799754521174	305782.9699959128	-2
0.48558872298211275	1.6450225401392675	286755.18155474646	-2
0.48169211881785168	1.6161471118579986	297510.21804236918	-2
0.39944862570391076	1.5521714206039765	335739.48821194022	-2
0.52870281788241014	1.68316294235727	268537.95801351243	-2
0.51397445300804434	1.626491390061346	288997.4246506234	-2
0.54783828911900589	1.6322227179032014	282037.31873386411	-2
0.58849388146467252	1.7327735159764646	246096.91066032532	-2
0.5847666220302703	1.7042307201269595	255148.21807688891	-2
0.6125270996483333	1.7486161193463154	238746.34049464302	-2
0.55545046402141884	1.6717259090411227	268672.02252361452	-2
0.66241014626616612	1.8508994331708453	202397.57045994294	-2
0.66694494228457157	1.8857805788597111	190695.69190342381	-2
0.65753869067317394	1.8245852691946978	211173.1714945086	-2
0.64285746511034836	1.8005677840541814	219968.9446873868	-2
0.65997119018878259	1.9140115089286207	181614.12774199023	-2
0.65091987787123462	1.7644656219016557	229989.00161934496	-2
0.65692071965933874	2	150852.52631274439	-2
0.64552310895160425	1.9616572600953808	165662.1971443225	-2
0.67558253279581149	1.9565011347897774	165755.33082350405	-2
0	1.3443597451448535	432987.91753632587	-2
0.033793441805901124	1.3469298538226306	432101.82733422832	-2
0.061879199647877518	1.381116737031771	419753.56103897892	-2
0.38417584415445527	1.501531042850111	362686.70993500692	-2
0.40543438210630722	1.5227428880041365	349719.2533857504	-2
0.37888952755439342	1.4738274013700403	377324.83726300916	-2
0.35111598769963093	1.4689215499262742	380703.60755888408	-2
0.32620961336976562	1.4749790022645679	378606.13264553488	-2
0.30618125205811725	1.4589825978479454	386434.96479732502	-2
0.30616832464484772	1.4323788896646823	398373.5758830916	-2
0.29070337460624535	1.4107318857952835	407756.81566866505	-2
0.23632312911467154	1.3854586343256874	417985.70373759884	-2
0.26167081354715643	1.3839959613853907	418600.66612681584	-2
0.10261747184320946	1.3601029826235553	427387.23334508808	-2
0.22074830254728914	1.3654069686688131	425615.40786400024	-2
0.17760924604125938	1.3528051885682735	430165.8547016941	-2
0.14868974747235947	1.3410896707914641	434253.23153817974	-2
0.11756761132992657	1.3388528435323284	435014.79564174148	-2
0.076664700600122482	1.3588665575862868	427829.11855076608	-2
0.45487101321391299	1.573596718347245	318240.42766555375	-2
0.42981007971561458	1.5402840731621663	337349.8324606375	-2
0.47840091171882737	1.5884933127596643	308191.064845577	-2
0.52751918029399114	1.5954157797686284	297188.82788080157	-2
0.55093307452541651	1.6065022486497096	289419.62250405486	-2
0.58546481615266577	1.6134647504847857	281327.67307714588	-2
0.58719428079836034	1.6470119977105373	271606.72316077579	-2
0.62818283858932022	1.6986600824773219	251480.63430214458	-2
0.58390707396751673	1.675533390283209	263780.36363363505	-2
0.61172881326350148	1.6762150628619232	259872.45228395725	-2
0.63938534210571885	1.7379813079336248	238911.72766153046	-2
0.69548053992776493	1.8486499943305355	200463.81731083654	-2
0.68903798675005223	1.9131512947024274	179931.23759258067	-2
0.7003218389902558	1.8814413458643917	189603.30815034907	-2
0.67590824045937303	1.8051243867375626	215557.1436704589	-2
0.67620867983192234	1.7517485804050037	231047.01657451119	-2
0.68810974514485335	2	149121.77874959313	-2
0.70143439284400388	1.9726093577992703	158365.28451457835	-2
0.7120144258540928	1.9440461573836951	167792.58314375422	-2
0	1.3132316941738242	443661.66689389892	-2
0.033628548037498263	1.3133016373192379	443647.41490727419	-2
0.060698659442829928	1.3332539104643422	436884.01438929985	-2
0.41380700631881462	1.4928574219260173	365340.99918324425	-2
0.44360334096835119	1.5009454323487517	357969.46922444506	-2
0.40550743519147803	1.4645041032692598	381538.23834756424	-2
0.38361548809883783	1.444666356112831	392114.25327045901	-2
0.33020687517768255	1.4494377181953373	390399.13932499272	-2
0.35348921803365568	1.4382008233839103	395388.12256630271	-2
0.32925925578734061	1.419166533508762	404114.62462271663	-2
0.29404645661929452	1.377970427949603	421147.61017010733	-2
0.32005459221621413	1.3913870095956984	415931.00918932783	-2
0.2495322348283722	1.3538260323277702	430089.72071564931	-2
0.2781570603596295	1.3541582857624102	430194.54996503267	-2
0.090765610685129935	1.3358808108855176	435996.35890936677	-2
0.22338282033760032	1.3344926975289366	436960.21521222446	-2
0.19666346007685406	1.3196028871388521	442009.90969179355	-2
0.16800876612253784	1.3089005892276235	445542.48207239027	-2
0.13509330064438313	1.3126364642981603	444087.37349794921	-2
0.10832754630880463	1.2959618512308644	449610.41003207979	-2
0.47076072782020184	1.5480832485575111	326472.01436733012	-2
0.47097692617805653	1.518027077323453	342449.48975824693	-2
0.49777723977494498	1.5684902489992949	312432.47987044847	-2
0.56646065615973695	1.5857654590254435	292555.01324677293	-2
0.52896939034141954	1.5553225867819487	310286.35725435271	-2
0.60151982982289465	1.5839580498824617	285957.82442617189	-2
0.61376706863915598	1.6249924288051738	273407.76960058889	-2
0.62663267946487	1.6527121135318921	264172.8140798526	-2
0.6409732703270693	1.6752284346605653	256159.54129376	-2
0.66546559776809699	1.7255601700522472	239478.73949089344	-2
0.67396712046566876	1.6944865496107482	246768.15637426235	-2
0.71882986752039424	1.8336116512198213	203075.7549608438	-2
0.72651219304547199	1.8603010636725192	194274.60875868925	-2
0.72055044676997015	1.906502241219824	179927.00702511656	-2
0.73845300489685084	1.8853271293415834	185451.16459610092	-2
0.72771167194934538	1.7778494893670083	218415.5234707871	-2
0.72859206976420665	1.8076108383499438	209890.22810873509	-2
0.70272250099166189	1.7616613971865145	225474.37342019676	-2
0.70081143945517688	1.7263582347830355	235171.19861427907	-2
0.71929877063036796	2	147395.11539627271	-2
0.73560880761544534	1.9690267647996664	157578.79706709113	-2
0.73922888332113812	1.9419747305661546	166716.12521189352	-2
0	1.2821036432027948	453889.75359704712	-2
0.027061322305848238	1.2866572713094382	452454.60935058066	-2
0.0540315695843765	1.292962037237156	450442.4963674625	-2
0.078182379944817873	1.3065223716947669	445978.6304294978	-2
0.43453881235830283	1.4699788360980761	378131.2051592475	-2
0.47209542154984108	1.4858028729081345	366697.97141086968	-2
0.41517412534931958	1.4318381233945698	398834.37160600687	-2
0.38892890433150124	1.4125051532796509	407588.11142349482	-2
0.35815465297896465	1.4074208780573345	409464.86074426165	-2
0.32288514749951308	1.3620701378316371	427741.49556802126	-2
0.34691552877588583	1.3797715945178204	421073.79893537197	-2
0.25500548434518844	1.321769624974783	441771.93893050792	-2
0.28860546388368324	1.3275064210464416	440134.06123785244	-2
0.22859445066226403	1.3017860466301265	448395.88247796072	-2
0.19638431015266303	1.2890160804811437	452363.76415372913	-2
0.1659737791468967	1.2758081721875631	456392.44711141154	-2
0.13430847218881456	1.2777554003746541	455589.00506960921	-2
0.083591827749580849	1.2736585444842721	456715.09606661013	-2
0.11688717430412916	1.2528949016069222	463339.03711049946	-2
0.49764025154984343	1.5346329186341003	326610.780404363	-2
0.48527584662049611	1.5049315303395943	349120.61104701547	-2
0.49001131932285968	1.5143332508203891	339981.58148204134	-2
0.58399543338083526	1.5535391755591881	297279.34870515188	-2
0.55040236227433847	1.5402188380686299	309376.42610531847	-2
0.51482225673799564	1.5219814194290233	326746.352120834	-2
0.53432918873748225	1.5195029358790928	320763.21835495997	-2
0.63235635520699762	1.6007366400493726	276100.8001507349	-2
0.63376424086932148	1.5614234147855601	284119.10353933001	-2
0.65752584757355126	1.6275428709138837	265608.68509710819	-2
0.66497864204605572	1.6635502758981655	255810.85380733848	-2
0.6974527061047392	1.6724349500608386	249108.4123315691	-2
0.72049813969778875	1.696978997444526	240204.11239410311	-2
0.76297797279494783	1.8353543390860174	198746.36367909118	-2
0.76506163175628739	1.8775253393419986	185890.25808633474	-2
0.75089290445040946	1.9172994774695407	174215.29680937622	-2
0.74904490397225698	1.7383030920144051	226598.82051305164	-2