[Format]      =  1
[Precision]   =  1e-008
[MinAngle]    =  30
[Depth]       =  20
[LengthUnits] =  meters
[ProblemType] =  planar
[Coordinates] =  cartesian
[PrevSoln] = "Temp0.anh"
[dT] = 10
[Comment]     =  "Add comments here."
[PointProps]   = 0
[BdryProps]   = 2
  <BeginBdry>
    <BdryName> = "Outer Boundary"
    <BdryType> = 2
    <Tset> = 0
    <qs>   = 0
    <beta> = 0
    <h>    = 5
    <Tinf> = 300
  <EndBdry>
  <BeginBdry>
    <BdryName> = "Inner Boundary"
    <BdryType> = 2
    <Tset> = 0
    <qs>   = 0
    <beta> = 0
    <h>    = 10
    <Tinf> = 800
  <EndBdry>
[BlockProps]  = 2
  <BeginBlock>
    <BlockName> = "Brick, Common"
    <Kx> = 5
    <Ky> = 2
    <Kt> = 3
    <qv> = 1000000
  <EndBlock>
  <BeginBlock>
    <BlockName> = "Air"
    <Kx> = 0.018100000000000002
    <Ky> = 0.018100000000000002
    <Kt> = 3
    <qv> = 0
    <TKPoints> = 18
      200	0.018100000000000002
      250	0.0223
      300	0.026100000000000002
      350	0.029700000000000001
      400	0.033099999999999997
      450	0.036299999999999999
      500	0.0395
      550	0.042599999999999999
      600	0.045600000000000002
      700	0.051299999999999998
      800	0.056899999999999999
      900	0.0625
      1000	0.067199999999999996
      1200	0.075899999999999995
      1400	0.083500000000000005
      1600	0.090399999999999994
      1800	0.097000000000000003
      2000	0.1032
  <EndBlock>
[ConductorProps]  = 0
[NumPoints] = 12
0	1	0	0	0
0	2	0	0	0
1	1	0	0	0
1	0	0	0	0
2	0	0	0	0
2	2	0	0	0
0	0	0	0	0
1	0.5	0	0	0
1.5	0.5	0	0	0
1.5	1	0	0	0
0.5	1.5	0	0	0
1.5	1.5	0	0	0
[NumSegments] = 12
1	5	-1	1	0	0	0
5	4	-1	1	0	0	0
4	3	-1	0	0	0	0
1	0	-1	0	0	0	0
0	6	-1	0	0	0	0
6	3	-1	0	0	0	0
10	2	-1	0	0	0	0
2	7	-1	0	0	0	0
7	8	-1	0	0	0	0
8	9	-1	0	0	0	0
9	11	-1	0	0	0	0
10	11	-1	0	0	0	0
[NumArcSegments] = 0
[NumHoles] = 0
[NumBlockLabels] = 2
0.5	0.5	1	-1	0	0
1.1619999999999999	1.224	2	-1	0	0
[Solution]
4399
0	0.02	305.31340729812456	-2
0	0.019980488155364688	305.33284085735045	-2
1.9511844635310908e-005	0.02	305.31469231616364	-2
0	0.019902668027937116	305.37845081507447	-2
4.4345040193632564e-005	0.01995565495980637	305.34921428667781	-2
9.7484408349097541e-005	0.02	305.3215323414646	-2
0	0.019824847900509542	305.41772857089472	-2
0.000100321786719574	0.019863757964223329	305.39812815089897	-2
0.0001754569720628842	0.02	305.32532406489338	-2
0	0.019669207645654396	305.49500292424455	-2
8.7889314765471661e-005	0.019747027773081967	305.45633481366258	-2
0.00030103597769799603	0.019783353525579365	305.43761836310478	-2
0.00033140209949045749	0.02	305.32569803108373	-2
0	0.0193579271359441	305.64848104178748	-2
0.00018189827535304868	0.019552314199998283	305.55255375503504	-2
0.00057620962067832574	0.019727306581310267	305.46374066999755	-2
0.00064329235434560403	0.02	305.32422490931009	-2
0	0.019046646626233808	305.80107323521173	-2
0.00035584765659101963	0.019207241088285306	305.72137014091453	-2
0.00065103611479266855	0.019456635582620851	305.59657180885131	-2
0.00090352078086678301	0.019672112820813499	305.48752060662179	-2
0.00095518260920075056	0.02	305.32118298108276	-2
0	0.018735366116523516	305.95303699084076	-2
0.000284402690586775	0.018891006371378662	305.87638489981333	-2
0.0007219612299425893	0.019202092090690511	305.72043504979155	-2
0.00055710613715751693	0.018995584077223852	305.82312340838394	-2
0.0009757600635171387	0.019275637405424484	305.68093617903861	-2
0.0012839835119295556	0.019689173274075177	305.47269012939927	-2
0.0013298161321994007	0.019381279470175438	305.62279620853337	-2
0.0012670728640558971	0.02	305.3147403679705	-2
0	0.018424085606813224	306.10489888309371	-2
0.00027717584786794534	0.018566546248864071	306.03452305952402	-2
0.00059333458407344428	0.018493264246443226	306.06766883080564	-2
0.0008419939679579347	0.018931221120538841	305.85093928111041	-2
0.0011535868829962196	0.018951764640454137	305.83535862800204	-2
0.0015613266412888615	0.019519531176285961	305.54982798150479	-2
0.0015789631189110436	0.019788602922700214	305.41743295684398	-2
0.0014655207741988638	0.018937292998123606	305.83500862395101	-2
0.00170498123682947	0.019291333877350599	305.65708895568565	-2
0.0018908533737661902	0.02	305.30204555131996	-2
0	0.018112805097102933	306.25686386941032	-2
0.00035983526281875995	0.018204522803322253	306.21066822034862	-2
0.00089247631829416003	0.01841089106269396	306.10306949139965	-2
0.00099399901546768027	0.018683354705000436	305.96892673485456	-2
0.00071215437613417795	0.018158393308784705	306.2291368840273	-2
0.0014073197909528206	0.018661351299052723	305.97002767965387	-2
0.0019135437326147603	0.019615339919441744	305.49380333966212	-2
0.0016673472459415011	0.01877051584636109	305.90964989007466	-2
0.0018661938563554938	0.018940834866358752	305.82130125224433	-2
0.0020903403119811323	0.019272964103292139	305.65397436441617	-2
0.0022027436286213365	0.02	305.29481762321029	-2
0	0.017801524587392637	306.40930611961272	-2
0.00039071829352920666	0.017921535808822518	306.34879896242506	-2
0.0011961841704092654	0.018474394284007503	306.06577476862782	-2
0.0011994518210709617	0.018183153904617382	306.20692348333586	-2
0.00098844384803576041	0.017934963642916458	306.33284613756888	-2
0.00064396369373786848	0.017791527470955245	306.40928805950102	-2
0.0016696615711203119	0.01850870830837743	306.03563199235032	-2
0.0014437837010565216	0.018341689605804436	306.1233165669459	-2
0.0022507552476405787	0.019572634588309438	305.50387178131206	-2
0.0020636712211849744	0.0187032404139062	305.92790941761484	-2
0.0022668531238658964	0.018935975344415535	305.80882376576943	-2
0.0024370928774282716	0.019239868554745715	305.65698467752037	-2
0.002514633883476483	0.02	305.28561353260193	-2
0	0.017490244077682345	306.56266612411343	-2
0.00031964323275722987	0.017645884332537488	306.48461752405478	-2
0.001464089382570345	0.018061504419736397	306.25811770634544	-2
0.0011719798760694538	0.017729896938799439	306.42816918068576	-2
0.00089127853773543399	0.017682943985063981	306.45801508269926	-2
0.00060062628976667294	0.017454109338596462	306.57597211754654	-2
0.0018859779438117658	0.018267583555085811	306.14347171205992	-2
0.0025854767940312979	0.019513500524057658	305.52008585740538	-2
0.002174499551866695	0.018414856096415588	306.06080749143024	-2
0.0024342883814789866	0.018594385486725498	305.96367871110965	-2
0.0026345784950757372	0.018838526651570296	305.83892336793588	-2
0.0027813761954242071	0.019186937902685958	305.66721967122606	-2
0.0028265241383316295	0.02	305.27150741486128	-2
0.0028735694324380674	0.019631377040089538	305.45188126262377	-2
0	0.017178963567972053	306.71717710836043	-2
0.00028999784051778928	0.017300717244320741	306.65538151817447	-2
0.001683883020456343	0.017918913610587065	306.31901964181293	-2
0.0014414300235527189	0.01778588305087243	306.39228066300279	-2
0.0010651705822805368	0.017476264130424583	306.55546284850237	-2
0.0015116926266476049	0.017308427146928592	306.62345411436769	-2
0.00073998856961325578	0.017143775193547265	306.72753920240962	-2
0.0019441545622549455	0.017948915387847774	306.29376738587473	-2
0.0023872446537738156	0.018220633493497194	306.14289646784175	-2
0.0027251697089496294	0.018471466443020751	306.00679521003849	-2
0.0030012451764436674	0.018930697739804131	305.77683797417961	-2
0.0030548152173574452	0.018597333613652657	305.9295504093119	-2
0.0031003639976938456	0.0192381977362375	305.627908912652	-2
0.0031384143931867756	0.02	305.26092592628044	-2
0.0032915851070952373	0.019610498050226223	305.44282927343266	-2
0	0.016867683058261758	306.872590036855	-2
0.00040590795242075565	0.01690947247773935	306.84967668290966	-2
0.0016860749141927433	0.017656927775643892	306.44599583592247	-2
0.0010269992727687451	0.017188334267554558	306.69871022441617	-2
0.0016305786115916896	0.017072179025787865	306.73525303352682	-2
0.0019677755342992053	0.017387657222006719	306.5640365826639	-2
0.0011951835786580666	0.016951533308826087	306.81174097223993	-2
0.00071956443962604348	0.01681757110114462	306.89130403751818	-2
0.0024638890747913935	0.017942949265286903	306.27029959410186	-2
0.002200985199437411	0.017681399420279735	306.4097945758835	-2
0.0026707431092894284	0.018169530425192759	306.15151542450974	-2
0.0029664867666118855	0.018251159481085463	306.09532877393082	-2
0.0033226037577850963	0.018827111775086586	305.80720212953833	-2
0.0033949112070934934	0.018503294134593132	305.95133441044032	-2
0.0032873560405912061	0.018189418175528254	306.10277820873995	-2
0.0033555542612865247	0.019342384467938591	305.56583534470326	-2
0.0034503046480419226	0.02	305.2466637469725	-2
0.0036062497754694956	0.019709363791678383	305.38054513424794	-2
0	0.016245122038841174	307.18894495679365	-2
0.00023715239361716596	0.016556402548551466	307.02974389039377	-2
0.00057182201318097881	0.016514347491375939	307.04733133522825	-2
0.001520953477497002	0.01683149379123167	306.85986359382889	-2
0.0018590067755541351	0.016938883766804681	306.79022411245302	-2
0.0022285256885341436	0.017276820199992476	306.60355473684473	-2
0.0022093773383452817	0.016994138702423965	306.74304048624606	-2
0.00090723634612421388	0.016549979041289867	307.02242066768474	-2
0.0012636127688068783	0.016598446001229932	306.9871890554785	-2
0.0027596738252273507	0.017853984080702292	306.29430162895437	-2
0.0024695849473893635	0.017425702442394657	306.51662100829611	-2
0.00305712015906818	0.017937225303322372	306.23544428348703	-2
0.0035748838699759394	0.018983326896960459	305.71999874696871	-2
0.0036704375225355525	0.01871057731560296	305.83841500865674	-2
0.0036257676788653331	0.018264984418128842	306.04348601557115	-2
0.0035394901642808252	0.017929143854144576	306.20267950432714	-2
0.0036231077178119704	0.019276111595688004	305.58204776180497	-2
0.0037621949028970691	0.02	305.2310852461344	-2
0.0038813539837547813	0.019748908015804634	305.34743448542434	-2
0	0.015933841529130879	307.34976887369811	-2
0.00037253412717120509	0.016207281721720868	307.20683849030706	-2
0.00076692570306215538	0.016274268601448018	307.16655319172872	-2
0.0015184864835115441	0.016521242676131757	307.01660226004287	-2
0.0017745556728418982	0.016594383185627285	306.9675350634696	-2
0.0020803987670566797	0.016561360525845139	306.96747883556736	-2
0.0024901373743896164	0.01700006790482542	306.72161860515945	-2
0.0023560768992399337	0.016697859836370545	306.88096337035779	-2
0.0011097149169974764	0.016273378851154173	307.15837931892139	-2
0.001516763084647776	0.016254938350688239	307.15343668028009	-2
0.0029520285315640547	0.017612316768868944	306.39487472878534	-2
0.002656741951032104	0.017226130436710983	306.60011400162182	-2
0.0029109161299541776	0.017327383664977655	306.5322589455248	-2
0.003290440169838183	0.017687883011469535	306.33323280592481	-2
0.003866995522169452	0.019035472864799487	305.67778826741841	-2
0.0039528229109000333	0.018772069811782689	305.79131623138687	-2
0.0038748176733079754	0.01850624526080388	305.91601525390314	-2
0.0039549904798738527	0.018174308328511787	306.05807309092671	-2
0.0038904665820066551	0.017838977935412444	306.21305364913582	-2
0.003618462069325026	0.017575480487489002	306.35666612342612	-2
0.0041456010162956754	0.019234890112199584	305.56939511084823	-2
0.0040719945044346804	0.019546664936929442	305.43092153064123	-2
0.0040740851577522157	0.02	305.21660197652687	-2
0	0.015622561019420587	307.51120025923927	-2
0.00032017116449697958	0.015829609105823775	307.4024396755899	-2
0.00067039066868983819	0.015980356522191298	307.32003882950028	-2
0.00095747887933697498	0.01602577670541596	307.29046557984628	-2
0.0017809189810040673	0.016321937381747195	307.10665697233276	-2
0.0020496722245606546	0.016276783181273166	307.11526487938119	-2
0.0023205865390984255	0.016369161856495996	307.05002124732442	-2
0.0026381378509064742	0.016726150401362595	306.84599713961489	-2
0.0027700176728747022	0.01697708156539017	306.71205644168606	-2
0.0012396832219295378	0.015956182576650407	307.31864417153264	-2
0.0015666341107175485	0.015930819465316607	307.32011822974931	-2
0.0018708374298955328	0.01605329604143179	307.24197104543526	-2
0.0031980211529252776	0.017306222165880937	306.51876934212521	-2
0.0030393304816871474	0.01706972719304602	306.64465238706077	-2
0.004188645505811028	0.018917449358914758	305.70943471118642	-2
0.0041651022669577965	0.018400707223356755	305.94046565187233	-2
0.0041963075375361101	0.017954001366576502	306.13400162358693	-2
0.0038858400870818259	0.01755378161947458	306.34097719467684	-2
0.0041335716397660526	0.017656693829913018	306.2704584659877	-2
0.0035758419871834111	0.01719918155235952	306.53338476313525	-2
0.0038632007045124174	0.017286481594017154	306.46400374243063	-2
0.0043508391930247529	0.019480855050222467	305.44439747765256	-2
0.0045480060893876148	0.019272983656033856	305.52532501823384	-2
0.0043859754126073626	0.02	305.20125280646295	-2
0.00026638451404501352	0.015561708499818297	307.54208254258566	-2
0	0.015311280509710295	307.67346734942424	-2
0.00060305821661111583	0.015654592369613963	307.49044910717276	-2
0.00085554706944690636	0.015768305794540024	307.42698319683456	-2
0.0011295742969457266	0.015667346997450267	307.47351911047775	-2
0.0023174165983431889	0.015879238146243865	307.30756842929026	-2
0.0028080107898253892	0.016499210054254258	306.94584855522567	-2
0.0028041280045011914	0.016225347444238186	307.08716443255486	-2
0.0025932542353106804	0.015964330151312756	307.24231123770932	-2
0.0030524216709308548	0.016622818817632657	306.86159537121608	-2
0.0013687355791903095	0.015499759762865923	307.55520527953155	-2
0.0018058638377350866	0.015775651905447816	307.39202809297643	-2
0.0033099304861388358	0.016980911434844325	306.66236742604258	-2
0.0045631044334061678	0.018889560742903221	305.69394412255645	-2
0.0044637811094701647	0.018479411554203948	305.88139132581017	-2
0.0044058100038932343	0.018178135991752258	306.01701774786932	-2
0.004517176811515429	0.017892260061019301	306.12920942941662	-2
0.004155917477126226	0.017353662102566524	306.40182874442712	-2
0.0044757574029143689	0.017529587156826464	306.28907249659477	-2
0.0037752728409808176	0.016999314359616772	306.60488549430761	-2
0.0042059426690362013	0.017069844668108628	306.52209370329444	-2
0.0046201426369140222	0.019578635194692898	305.38295227690963	-2
0.0048288353479905175	0.019413559159185058	305.44317078827601	-2
0.0048359242969662182	0.019147565753330962	305.56022965314355	-2
0.0046978656674625087	0.02	305.18202063124414	-2
0.00041476473652054364	0.015332259054312196	307.66080793367058	-2
0	0.014999999999999999	307.83508701426399	-2
0.00030263618318072152	0.015047222538963281	307.80994062599905	-2
0.00089445222896808257	0.015494138414318782	307.56982964008563	-2
0.0010689086959636926	0.015196969385547687	307.72261148653138	-2
0.0025101297678356339	0.015687893225050282	307.39822770319068	-2
0.0022157851166189524	0.015584161867802322	307.47350943771119	-2
0.0030403022325908575	0.016354101505902944	306.99785425502239	-2
0.0029310594038100372	0.015975223352110032	307.20753038550191	-2
0.002776414878668088	0.015741217556376131	307.34859556963102	-2
0.0032914684842869162	0.016513170964435393	306.89167104284314	-2
0.0016425841303775546	0.015408177513373896	307.59474788398626	-2
0.0014128991404462809	0.01517659625024609	307.72593932130104	-2
0.0019123599787828158	0.015511140268905179	307.52857198639259	-2
0.0034887893180318014	0.016687040223525896	306.78526003824533	-2
0.0049100337561300391	0.018745903830806737	305.72875553946022	-2
0.0046742290729890265	0.018282702244509098	305.94722085892698	-2
0.0046781501157478061	0.017690174325810479	306.19805939875596	-2
0.0048377090213951651	0.017948812816739254	306.07242862366905	-2
0.0044881236182091784	0.017128400349743542	306.46003525823147	-2
0.0047301193235657103	0.017416841694337108	306.30696647951828	-2
0.0040165317487906981	0.01685263886887748	306.64416215914372	-2
0.0037692306935638298	0.016717032492264618	306.73819165060672	-2
0.0044795621306889201	0.016654139455066285	306.66935379247633	-2
0.0041896398310034026	0.016617145606665905	306.72874983041953	-2
0.0049024834057672965	0.019711966254845486	305.30435879926523	-2
0.0050893139713990686	0.019467906485730428	305.40082354984429	-2
0.0052370445956260924	0.019224552881777383	305.49616999022447	-2
0.0052025979919900324	0.018941959984857832	305.62049184001745	-2
0.0050097559223176557	0.02	305.1620643267845	-2
0.00061870127718694564	0.015087460864259933	307.78668105836078	-2
0	0.014688719490289706	307.99545722134832	-2
0.00026725674391952744	0.01463085258966077	308.02493262544004	-2
0.00048260656500369271	0.014799373211300631	307.93725330887901	-2
0.0010018454620509098	0.014858964928188756	307.90177746489445	-2
0.0025690666541536289	0.015422793832381154	307.54248281857434	-2
0.00240212474213207	0.015216860301872226	307.66774907948945	-2
0.0021380562535790273	0.015240228107301849	307.66686288421346	-2
0.0032884134541329609	0.016250194354302069	307.02549550839973	-2
0.0032112298073860355	0.015961874698488882	307.18679417344515	-2
0.0031287338102624351	0.015675029880317156	307.35429054065833	-2
0.0029347716842098464	0.015319610572092926	307.57640617681614	-2
0.0037309795528181521	0.016437597792332691	306.87744470815858	-2
0.0035615660003472955	0.016221402691592234	307.00782191321423	-2
0.0017364148381536638	0.015135091197921056	307.73915071001846	-2
0.0014452004704394229	0.014839179406442868	307.90473093093249	-2
0.0016994939043244615	0.014880174381756981	307.87776045880497	-2
0.0049571074034845527	0.018228271113656224	305.9435199229199	-2
0.0052040321600434203	0.018589781350060598	305.7687320723054	-2
0.0049348437550310667	0.017660858381311043	306.18094349810491	-2
0.005263560510436068	0.017932103625519284	306.03295450882911	-2
0.0047258915496521149	0.016886900373448796	306.53104659075939	-2
0.0048853546005339947	0.017185944455778573	306.38327799092832	-2
0.0040678175951570708	0.016351471318245273	306.87304423949638	-2
0.0048558872298210265	0.016450225401392703	306.69662609539569	-2
0.0045787626684348354	0.016360228925237041	306.78586292016632	-2
0.0052480520712798549	0.01976363530946568	305.25850191234758	-2
0.0055144607745506204	0.019559479182045543	305.33026893259927	-2
0.0055036492418761018	0.019124716633403607	305.51812310056033	-2
0.005484358081512989	0.018817158488017294	305.64900159234753	-2
0.0056335364320279488	0.02	305.12312243705816	-2
0	0.014377438980579414	308.15389270684267	-2
0.00036399016917585374	0.014375084355125975	308.1545529834861	-2
0.0006619437824742434	0.014584172929276086	308.04705713057518	-2
0.00093937129446145255	0.014545353159234135	308.0648855027909	-2
0.0012290582932577381	0.014628961665112617	308.01899284186567	-2
0.0026034322033631043	0.015044368194719462	307.75593462049221	-2
0.0028534968678369499	0.015080393943823711	307.72183688297332	-2
0.0022137925910063845	0.014895850095584253	307.85491434130932	-2
0.0019557424552018089	0.014917566004841292	307.85069945351631	-2
0.0034637126996185292	0.015802695779082752	307.2443339525156	-2
0.0031932373994347112	0.015262677750996899	307.589611808955	-2
0.003394542039692337	0.015434498337293772	307.46765994431127	-2
0.0038071331504599291	0.016098365916071541	307.03896679686642	-2
0.0016561757121908048	0.014448737890077253	308.10856201137267	-2
0.0018585168440731956	0.014677548018339681	307.98344316391893	-2
0.0052927534255562706	0.018268942095068724	305.89285719864006	-2
0.0055277122682929683	0.018512060837829244	305.77054476536017	-2
0.0052106886181974288	0.017591681939458318	306.1754825697746	-2
0.0055326093278260458	0.018078470135281376	305.94439956969001	-2
0.0054744969847676838	0.017697893588396681	306.10103383085612	-2
0.005042580785568236	0.016673928115918901	306.57040409147379	-2
0.0052870281788241422	0.016831629423572338	306.46616560976076	-2
0.0054129897172573264	0.01709384674058393	306.34417095789615	-2
0.0054104538798906291	0.017389272431620074	306.22958436313689	-2
0.0042156599069586975	0.016094580309965901	306.97619704923181	-2
0.0051397445300805115	0.016264913900613583	306.71942087093055	-2
0.0048169211881785049	0.01616147111858007	306.83152569989687	-2
0.0045097645312589998	0.016057799754521235	306.94078336338293	-2
0.0057177460699018605	0.019740883710891898	305.23669323030748	-2
0.0056785228583982007	0.019337883636727046	305.4133773421367	-2
0.0057576036608117196	0.01897285370050799	305.56049098930026	-2
0.0059158845888322032	0.018722849010332863	305.64812430144389	-2
0.0059454266868830949	0.02	305.10328903513278	-2
0	0.014066158470869122	308.30853546213393	-2
0.00026464328558837685	0.014062645707416419	308.3101998709862	-2
0.00051037388507935296	0.014160955831960595	308.26119489539968	-2
0.00072223177616159804	0.014310606928518177	308.1859704611627	-2
0.001049977578867878	0.014245317139575416	308.21785650787052	-2
0.0013640948288476972	0.014359380372025183	308.15753670081267	-2
0.0027334985884973476	0.014802033515398636	307.89047968136941	-2
0.0025269109164396458	0.014620471142927917	308.00099104696415	-2
0.0029989909480661915	0.014873846942792018	307.8375092520759	-2
0.0032580820081089339	0.015006082644281007	307.74176764789763	-2
0.0021839341597079875	0.014546195382602259	308.04900990738003	-2
0.0037687251549524963	0.015737057806284774	307.24111122797734	-2
0.0035486188683374253	0.01509301002532798	307.66565773793155	-2
0.0037509133677982387	0.015318941369357564	307.49780955451575	-2
0.0040630824393648761	0.015840473136363314	307.13788862320422	-2
0.0019175924087708074	0.014092574636076343	308.29252981252819	-2
0.0021405427330810026	0.014266671336550346	308.20044434478842	-2
0.001603217102238998	0.014147920014812354	308.2651121096946	-2
0.0057697159522483079	0.018297971070057501	305.83199778582599	-2
0.0057686298213510331	0.0178832657604454	305.99347809538227	-2
0.0056941255334633399	0.017471814314047474	306.1593615278922	-2
0.0058855345856752388	0.017649625806359589	306.06736618257827	-2
0.0054783828911901507	0.016322227179031847	306.62714714930257	-2
0.0055545046402142315	0.016717259090410944	306.46304185993944	-2
0.0056475056751062284	0.017212951089235221	306.26311795686991	-2
0.0058476662203025033	0.017042307201269181	306.294777384307	-2
0.0042817417807377153	0.015675976826253997	307.18988231198432	-2
0.0055093307452541984	0.016065022486496976	306.71673716304002	-2
0.0052751918029399414	0.015954157797686296	306.8182983689515	-2
0.0047840091171882718	0.015884933127596694	306.96686281373513	-2
0.0045487101321391261	0.015735967183472449	307.10006398649392	-2
0.0059778061803780428	0.019659635613491867	305.25322277222983	-2
0.0059286872975345788	0.019221958201843262	305.44228435191326	-2
0.006052297961788443	0.018946199127609011	305.54530228127328	-2
0.0061675906658757718	0.018711249184870563	305.62847783810781	-2
0.0060283503531276582	0.01845888212022977	305.74185185138094	-2
0.0062573169417382427	0.02	305.08344829345265	-2
0	0.013754877961158827	308.45877911500162	-2
0.0002604638228491051	0.013758062967351754	308.45743051460397	-2
0.00047635293827280362	0.013903814252489113	308.38754664816543	-2
0.00082905104783802101	0.01399457516937719	308.34296536327838	-2
0.0013062551130730584	0.014030836620195481	308.32421052871535	-2
0.0010852645400907541	0.013780937448047632	308.44760276682672	-2
0.0030618125205812046	0.014589825978479349	308.00709094479049	-2
0.0027900223671278907	0.01452940656168949	308.04838113154972	-2
0.0023992012031667283	0.014381180305975752	308.13602479770441	-2
0.0032620961336976124	0.014749790022645608	307.90345730784026	-2
0.0035111598769962281	0.01468921549926268	307.93291955472506	-2
0.0039944862570392122	0.015521714206039785	307.33469984173644	-2
0.0038417584415445533	0.015015310428501107	307.69376400375614	-2
0.0037888952755438859	0.014738274013700372	307.88976820915804	-2
0.0040543438210630719	0.015227428880041362	307.52014583698042	-2
0.0022232449803888262	0.013930957065043137	308.37617294191926	-2
0.0019359838755656311	0.013757521538607754	308.46150311438663	-2
0.002504958362036176	0.014131409813600487	308.27265972485003	-2
0.0016894140770117938	0.013641528088514356	308.51723193032899	-2
0.0014286152887775466	0.013720490979032609	308.47774478745691	-2
0.0060684143518803316	0.018174766046743594	305.84707993944426	-2
0.006186755731839297	0.017886994652366487	305.94112498142448	-2
0.0060956687789176537	0.017255448594784454	306.18107190421716	-2
0.0061372853352681467	0.017579798074430747	306.05892550477802	-2
0.0058546481615266328	0.016134647504847742	306.60968962049742	-2
0.0058719428079835653	0.016470119977105187	306.49232480228886	-2
0.0058390707396750998	0.016755333902831786	306.39878474200077	-2
0.0061172881326348348	0.016762150628618893	306.34659372216345	-2
0.0062818283858927567	0.016986600824772932	306.24315619820106	-2
0.0042981007971561484	0.015402840731621658	307.35334451814919	-2
0.0056646065615973953	0.015857654590254375	306.75031989045732	-2
0.0049777723977494567	0.015684902489992967	307.01699441311678	-2
0.0052896939034142122	0.015553225867819485	306.9804813928539	-2
0.0047076072782020169	0.015480832485575111	307.20415745316723	-2
0.006284360797167144	0.019599506200551731	305.25573775778639	-2
0.0062223346534731562	0.019293329720603169	305.38848328211907	-2
0.0063124260023191374	0.018917436552303091	305.53358906509038	-2
0.0063116272474725843	0.018504503040206816	305.6949319338957	-2
0.0063216588195929404	0.018242538783434289	305.79326848218273	-2
0.0065692071965933888	0.02	305.05875937790137	-2
0.0065908158959499703	0.019660140776539745	305.20664005652299	-2
0	0.013443597451448535	308.6046083469605	-2
0.00041554280081370785	0.013548773555600769	308.55629868343294	-2
0.00075498968170261804	0.01366930398461994	308.50028156109778	-2
0.00098488008160767509	0.013447071497799296	308.60509286587524	-2
0.0029878550046748705	0.014280996911370169	308.18868962315941	-2
0.0033020687517768665	0.01449437718195333	308.06063544299889	-2
0.0027902581340660199	0.014064642234295391	308.30960119490027	-2
0.0038361548809883834	0.014446663561128312	308.0885161315594	-2
0.0035348921803365842	0.014382008233839063	308.1288531884648	-2
0.0041380700631881463	0.014928574219260173	307.7307412530451	-2
0.0040550743519147834	0.014645041032692601	307.94908127783862	-2
0.0044360334096835118	0.015009454323487516	307.63173632625825	-2
0.00235999016104979	0.013697056955190809	308.49636883443122	-2
0.0021398580875400708	0.013539100074887223	308.57088340382171	-2
0.0018615796982625224	0.013430316950354458	308.6195554510154	-2
0.0026280389008080779	0.013657580646638414	308.52038901721511	-2
0.0014791057536962954	0.013417086167148307	308.62186588845606	-2
0.0064962760661647963	0.018047001775516981	305.84536055883132	-2
0.0064380261746837678	0.017703472931076932	305.97473778918192	-2
0.0063751270696688015	0.017384436529945049	306.09463096292052	-2
0.0060151982982288923	0.015839580498824571	306.65964754813893	-2
0.0061376706863914623	0.016249924288051571	306.50764117688175	-2
0.0062663267946485059	0.016527121135318703	306.39491289440343	-2
0.006409732703270327	0.016752284346605476	306.29676244058061	-2
0.0067396712046561792	0.01694486549610735	306.1797026257542	-2
0.00665465597768038	0.017255601700522254	306.09543729343409	-2
0.0047097692617805659	0.015180270773234528	307.41765912621412	-2
0.005839954333808346	0.015535391755591899	306.79938248322964	-2
0.0055040236227433727	0.015402188380686284	306.95900552771997	-2
0.0049764025154984343	0.015346329186341004	307.19954847954369	-2
0.0051482225673799564	0.015219814194290233	307.19294361130898	-2
0.0053432918873748238	0.015195029358790919	307.10322595965101	-2
0.0066004960788443555	0.019213291845364116	305.38927021898633	-2
0.006724177888086439	0.018948663271447775	305.4827027844828	-2
0.0066913537562482694	0.018658408127756126	305.59742603563706	-2
0.0066800390366432375	0.018325193946626451	305.72296671657557	-2
0.0068810974514485349	0.02	305.0385887718009	-2
0.0069034648694418117	0.019340737751181235	305.31211621844449	-2
0.0070748215268213134	0.019676562096395688	305.16183205253714	-2
0	0.013132316941738243	308.74466185538654	-2
0.00035770138728176149	0.013182158496838379	308.72279706126346	-2
0.00069226670131669989	0.013318175090395195	308.66261202214139	-2
0.001228026711790097	0.013239426150155947	308.70056053695021	-2
0.00093368379116206624	0.013055604221183509	308.78025197162003	-2
0.0032925925578734163	0.01419166533508762	308.24202905376313	-2
0.0030503286700591047	0.013929671178602649	308.38556164289315	-2
0.0029293390487186949	0.013653703199931519	308.52819154329211	-2
0.0041517412534931982	0.014318381233945705	308.18305596983959	-2
0.0038892890433150197	0.014125051532796515	308.29552946734231	-2
0.0035815465297896558	0.014074208780573347	308.31603270751503	-2
0.0043453881235830287	0.014699788360980761	307.90693707847021	-2
0.0047209542154984111	0.014858028729081344	307.75536911271701	-2
0.0023280397496714912	0.013307021872206589	308.68422320770509	-2
0.0016763407441315636	0.013250311546498137	308.70004758548663	-2
0.0018977693652329592	0.013105576815168078	308.76853705226733	-2
0.0026016575668756665	0.013196934393822045	308.7417963507512	-2
0.0028860546388368279	0.013275064210464364	308.71215043567088	-2
0.001417392804820462	0.013070847099126965	308.77777209416263	-2
0.0068445077337182672	0.018035177117686988	305.80774607907273	-2
0.0066712609382664446	0.017539959515904268	305.99960298428601	-2
0.006323563552069849	0.016007366400493647	306.53394386027776	-2
0.0063376424086930994	0.015614234147855592	306.62466675492078	-2
0.0065752584757352494	0.016275428709138787	306.40436802036584	-2
0.0066497864204601654	0.016635502758981558	306.28787892285192	-2