[Format]      =  4.0
[Frequency]   =  0
[Precision]   =  1e-008
[MinAngle]    =  30
[Depth]       =  1
[LengthUnits] =  inches
[ProblemType] =  planar
[Coordinates] =  cartesian
[ACSolver]    =  0
[Comment]     =  "Add comments here."
[PointProps]   = 0
[BdryProps]   = 0
[BlockProps]  = 1
  <BeginBlock>
    <BlockName> = "Air"
    <Mu_x> = 1
    <Mu_y> = 1
    <H_c> = 0
    <H_cAngle> = 0
    <J_re> = 0
    <J_im> = 0
    <Sigma> = 0
    <d_lam> = 0
    <Phi_h> = 0
    <Phi_hx> = 0
    <Phi_hy> = 0
    <LamType> = 0
    <LamFill> = 1
    <NStrands> = 0
    <WireD> = 0
    <BHPoints> = 0
  <EndBlock>
[CircuitProps]  = 0
[NumPoints] = 13
1.3700000000000001	4.3399999999999999	0	0
5.4800000000000004	4.0599999999999996	0	0
4.8899999999999997	1.6699999999999999	0	0
2.3599999999999999	0.76000000000000001	0	0
0.85999999999999999	5.2000000000000002	0	0
7.5300000000000002	4.4199999999999999	0	0
6.5700000000000003	0.79000000000000004	0	0
2.1800000000000002	0.25	0	0
0.53000000000000003	2.5800000000000001	0	0
1.1499999999999999	4.96	0	0
1.45	4.8799999999999999	0	0
1.3200000000000001	4.7300000000000004	0	0
1.0800000000000001	4.71	0	0
[NumSegments] = 13
0	1	-1	0	0	0
1	2	-1	0	0	0
2	3	-1	0	0	0
3	0	-1	0	0	0
8	4	-1	0	0	0
4	5	-1	0	0	0
5	6	-1	0	0	0
6	7	-1	0	0	0
7	8	-1	0	0	0
9	10	-1	0	0	0
10	11	-1	0	0	0
11	12	-1	0	0	0
9	12	-1	0	0	0
[NumArcSegments] = 0
[NumHoles] = 0
[NumBlockLabels] = 2
1.24	2.6699999999999999	1	-1	0	0	0	1	0
1.22	4.8399999999999999	1	-1	0	0	0	1	0
