[Format]      =  1
[Precision]   =  1e-008
[MinAngle]    =  30
[Depth]       =  1
[LengthUnits] =  meters
[ProblemType] =  axisymmetric
[Coordinates] =  cartesian
[Comment]     =  "Add comments here."
[PointProps]   = 0
[BdryProps]   = 0
[BlockProps]  = 2
  <BeginBlock>
    <BlockName> = "mat1"
    <ex> = 4
    <ey> = 4
    <qv> = 0
  <EndBlock>
  <BeginBlock>
    <BlockName> = "air"
    <ex> = 1
    <ey> = 1
    <qv> = 0
  <EndBlock>
[ConductorProps]  = 2
  <BeginConductor>
    <ConductorName> = "m1t"
    <Vc> = 50
    <qc> = 0
    <ConductorType> = 1
  <EndConductor>
  <BeginConductor>
    <ConductorName> = "b1segm"
    <Vc> = 0
    <qc> = 0
    <ConductorType> = 1
  <EndConductor>
[NumPoints] = 14
0	-0.40000000000000002	0	2	2
0.050000000000000003	-0.40000000000000002	0	2	2
0.050000000000000003	0.40000000000000002	0	2	2
0	0.40000000000000002	0	2	2
0.17999999999999999	-0.29999999999999999	0	4	1
0.20000000000000001	-0.29999999999999999	0	4	1
0.20499999999999999	-0.29999999999999999	0	4	1
0.20499999999999999	0.20000000000000001	0	4	1
0.20000000000000001	0.20000000000000001	0	4	1
0.17999999999999999	0.20000000000000001	0	4	1
0.17499999999999999	0.20000000000000001	0	4	1
0.17499999999999999	-0.29999999999999999	0	4	1
0	-1	0	3	0
0	1	0	3	0
[NumSegments] = 10
0	1	-1	0	0	2	2
1	2	-1	0	0	2	2
2	3	-1	0	0	2	2
3	0	-1	0	0	3	0
4	5	-1	0	0	4	1
6	7	-1	0	0	4	1
8	9	-1	0	0	4	1
10	11	-1	0	0	4	1
12	0	-1	0	0	0	0
3	13	-1	0	0	0	0
[NumArcSegments] = 5
5	6	49.2486367043279	18	0	0	4	1
7	8	49.2486367043279	18	0	0	4	1
9	10	49.248636704328199	18	0	0	4	1
11	4	49.248636704328199	18	0	0	4	1
12	13	180	5	0	0	0	0
[NumHoles] = 2
0.029999999999999999	0	2
0.19	-0.040000000000000001	4
[NumBlockLabels] = 1
0.90000000000000002	0	1	0.033333333333333333	3	0
