[Format]      =  4.0
[Frequency]   =  0
[Precision]   =  1e-08
[MinAngle]    =  30
[Depth]       =  1.635130595832468
[LengthUnits] =  meters
[ProblemType] =  planar
[Coordinates] =  cartesian
[ACSolver]    =  0
[Comment]     =  "Add comments here."
[PointProps]  =  0
[BdryProps]   = 9
  <BeginBdry>
    <BdryName> = "Pros A"
    <BdryType> = 0
    <A_0> = 0
    <A_1> = 0
    <A_2> = 0
    <Phi> = 90
    <c0> = 0
    <c0i> = 0
    <c1> = 0
    <c1i> = 0
    <Mu_ssd> = 0
    <Sigma_ssd> = 0
  <EndBdry>
  <BeginBdry>
    <BdryName> = "Periodic 1"
    <BdryType> = 4
    <A_0> = 0
    <A_1> = 0
    <A_2> = 0
    <Phi> = 0
    <c0> = 0
    <c0i> = 0
    <c1> = 0
    <c1i> = 0
    <Mu_ssd> = 0
    <Sigma_ssd> = 0
  <EndBdry>
  <BeginBdry>
    <BdryName> = "Periodic 2"
    <BdryType> = 4
    <A_0> = 0
    <A_1> = 0
    <A_2> = 0
    <Phi> = 0
    <c0> = 0
    <c0i> = 0
    <c1> = 0
    <c1i> = 0
    <Mu_ssd> = 0
    <Sigma_ssd> = 0
  <EndBdry>
  <BeginBdry>
    <BdryName> = "Periodic 3"
    <BdryType> = 4
    <A_0> = 0
    <A_1> = 0
    <A_2> = 0
    <Phi> = 0
    <c0> = 0
    <c0i> = 0
    <c1> = 0
    <c1i> = 0
    <Mu_ssd> = 0
    <Sigma_ssd> = 0
  <EndBdry>
  <BeginBdry>
    <BdryName> = "Periodic 4"
    <BdryType> = 4
    <A_0> = 0
    <A_1> = 0
    <A_2> = 0
    <Phi> = 0
    <c0> = 0
    <c0i> = 0
    <c1> = 0
    <c1i> = 0
    <Mu_ssd> = 0
    <Sigma_ssd> = 0
  <EndBdry>
  <BeginBdry>
    <BdryName> = "Periodic 5"
    <BdryType> = 4
    <A_0> = 0
    <A_1> = 0
    <A_2> = 0
    <Phi> = 0
    <c0> = 0
    <c0i> = 0
    <c1> = 0
    <c1i> = 0
    <Mu_ssd> = 0
    <Sigma_ssd> = 0
  <EndBdry>
  <BeginBdry>
    <BdryName> = "Periodic 6"
    <BdryType> = 4
    <A_0> = 0
    <A_1> = 0
    <A_2> = 0
    <Phi> = 0
    <c0> = 0
    <c0i> = 0
    <c1> = 0
    <c1i> = 0
    <Mu_ssd> = 0
    <Sigma_ssd> = 0
  <EndBdry>
  <BeginBdry>
    <BdryName> = "Periodic 7"
    <BdryType> = 4
    <A_0> = 0
    <A_1> = 0
    <A_2> = 0
    <Phi> = 0
    <c0> = 0
    <c0i> = 0
    <c1> = 0
    <c1i> = 0
    <Mu_ssd> = 0
    <Sigma_ssd> = 0
  <EndBdry>
  <BeginBdry>
    <BdryName> = "Periodic 8"
    <BdryType> = 4
    <A_0> = 0
    <A_1> = 0
    <A_2> = 0
    <Phi> = 0
    <c0> = 0
    <c0i> = 0
    <c1> = 0
    <c1i> = 0
    <Mu_ssd> = 0
    <Sigma_ssd> = 0
  <EndBdry>
[BlockProps]  = 4
  <BeginBlock>
    <BlockName> = "1117 Steel"
    <Mu_x> = 1777
    <Mu_y> = 1777
    <H_c> = 0
    <H_cAngle> = 0
    <J_re> = 0
    <J_im> = 0
    <Sigma> = 0
    <d_lam> = 0
    <Phi_h> = 0
    <Phi_hx> = 0
    <Phi_hy> = 0
    <LamType> = 1
    <LamFill> = 1
    <NStrands> = 0
    <WireD> = 0
    <BHPoints> = 9
      0	0
      0.70040000000000002	238.73249999999999
      1.351	795.77499999999998
      1.6240000000000001	3183.0999999999999
      1.77	7957.75
      2	31831
      2.1299999999999999	79577.5
      2.25	159155
      2.46	318310
  <EndBlock>
  <BeginBlock>
    <BlockName> = "NdFeB 40 MGOe"
    <Mu_x> = 1.0489999999999999
    <Mu_y> = 1.0489999999999999
    <H_c> = 979000
    <H_cAngle> = 0
    <J_re> = 0
    <J_im> = 0
    <Sigma> = 0.66700000000000004
    <d_lam> = 0
    <Phi_h> = 0
    <Phi_hx> = 0
    <Phi_hy> = 0
    <LamType> = 0
    <LamFill> = 1
    <NStrands> = 0
    <WireD> = 0
    <BHPoints> = 0
  <EndBlock>
  <BeginBlock>
    <BlockName> = "Air"
    <Mu_x> = 1
    <Mu_y> = 1
    <H_c> = 0
    <H_cAngle> = 0
    <J_re> = 0
    <J_im> = 0
    <Sigma> = 0
    <d_lam> = 0
    <Phi_h> = 0
    <Phi_hx> = 0
    <Phi_hy> = 0
    <LamType> = 0
    <LamFill> = 1
    <NStrands> = 0
    <WireD> = 0
    <BHPoints> = 0
  <EndBlock>
  <BeginBlock>
    <BlockName> = "wire"
    <Mu_x> = 1
    <Mu_y> = 1
    <H_c> = 0
    <H_cAngle> = 0
    <J_re> = 0
    <J_im> = 0
    <Sigma> = 58.823529411764703
    <d_lam> = 0
    <Phi_h> = 0
    <Phi_hx> = 0
    <Phi_hy> = 0
    <LamType> = 3
    <LamFill> = 1
    <NStrands> = 1
    <WireD> = 0.74416819751743335
    <BHPoints> = 0
  <EndBlock>
[CircuitProps]  = 3
  <BeginCircuit>
    <CircuitName> = "Coil A"
    <TotalAmps_re> = 0
    <TotalAmps_im> = 0
    <CircuitType> = 1
  <EndCircuit>
  <BeginCircuit>
    <CircuitName> = "Coil C"
    <TotalAmps_re> = 4.3494274780126675e-08
    <TotalAmps_im> = 0
    <CircuitType> = 1
  <EndCircuit>
  <BeginCircuit>
    <CircuitName> = "Coil B"
    <TotalAmps_re> = 0
    <TotalAmps_im> = 0
    <CircuitType> = 1
  <EndCircuit>
[NumPoints] = 60
0.018754979001603209	0.0083074143815839233	0	0
0.040638560613719413	0.0083074143815839233	0	0
0.062522142225835617	0.0083074143815839233	0	0
0.018754979001603209	0.060160230531617724	0	0
0.040638560613719413	0.060160230531617724	0	0
0.062522142225835617	0.060160230531617724	0	0
0.018754979001603209	0.076775059294785564	0	0
0.040638560613719413	0.076775059294785564	0	0
0.062522142225835617	0.076775059294785564	0	0
0.018754979001603223	0.19709552035802103	0	0
0.040638560613719399	0.19709552035802103	0	0
0.062522142225835631	0.19709552035802103	0	0
0.062522142225835631	0.14524270420798721	0	0
0.040638560613719399	0.14524270420798721	0	0
0.018754979001603223	0.14524270420798721	0	0
0.062522142225835631	0.12862787544481938	0	0
0.040638560613719399	0.12862787544481938	0	0
0.018754979001603223	0.12862787544481938	0	0
0	0	0	0
0.062522142225835617	0	0	0
0.077917927005961979	0	0	0
0.12120586109182858	0	0	0
0.17514921925985058	0	0	0
0.23146275777685804	0	0	0
0.018754979001603223	0.40249845509762594	0	0
0.040638560613719399	0.40249845509762594	0	0
0.062522142225835631	0.40249845509762594	0	0
0.018754979001603223	0.35064563894759215	0	0
0.040638560613719399	0.35064563894759215	0	0
0.062522142225835631	0.35064563894759215	0	0
0.018754979001603223	0.33403081018442432	0	0
0.040638560613719399	0.33403081018442432	0	0
0.062522142225835631	0.33403081018442432	0	0
0.018754979001603223	0.21371034912118886	0	0
0.040638560613719399	0.21371034912118886	0	0
0.062522142225835631	0.21371034912118886	0	0
0.062522142225835631	0.2655631652712227	0	0
0.040638560613719399	0.2655631652712227	0	0
0.018754979001603223	0.2655631652712227	0	0
0.062522142225835631	0.28217799403439048	0	0
0.040638560613719399	0.28217799403439048	0	0
0.018754979001603223	0.28217799403439048	0	0
0	0.41080586947920988	0	0
0.062522142225835631	0.41080586947920988	0	0
0.077917927005962007	0.41080586947920988	0	0
0.12120586109182857	0.41080586947920988	0	0
0.17514921925985061	0.41080586947920988	0	0
0.23146275777685804	0.41080586947920988	0	0
0.077917927005961979	0.38375971409488419	0	0
0.12120586109182858	0.38375971409488419	0	0
0.077917927005961979	0.081820271314886894	0	0
0.12120586109182858	0.081820271314886894	0	0
0.077917927005961979	0.1783567793552793	0	0
0.077917927005961979	0.28722320605449192	0	0
0.12120586109182858	0.28722320605449192	0	0
0.12120586109182858	0.1783567793552793	0	0
0.40040337332788045	0	0	0
0.40040337332788045	0.41080586947920988	0	0
0.62565752739591041	0	0	0
0.62565752739591041	0.41080586947920988	0	0
[NumSegments] = 80
0	1	-1	0	0	1
1	2	-1	0	0	1
2	5	-1	0	0	1
5	4	-1	0	0	1
4	3	-1	0	0	1
3	0	-1	0	0	1
5	8	-1	0	0	1
8	7	-1	0	0	1
7	6	-1	0	0	1
9	10	-1	0	0	1
10	11	-1	0	0	1
11	12	-1	0	0	1
12	13	-1	0	0	1
13	14	-1	0	0	1
14	9	-1	0	0	1
12	15	-1	0	0	1
15	16	-1	0	0	1
16	17	-1	0	0	1
6	17	-1	0	0	1
8	15	-1	0	0	1
18	19	-1	3	0	1
19	20	-1	4	0	0
20	21	-1	5	0	0
21	22	-1	6	0	0
22	23	-1	7	0	0
19	2	-1	0	0	1
24	25	-1	0	0	1
25	26	-1	0	0	1
26	29	-1	0	0	1
29	28	-1	0	0	1
28	27	-1	0	0	1
27	24	-1	0	0	1
29	32	-1	0	0	1
32	31	-1	0	0	1
31	30	-1	0	0	1
33	34	-1	0	0	1
34	35	-1	0	0	1
35	36	-1	0	0	1
36	37	-1	0	0	1
37	38	-1	0	0	1
38	33	-1	0	0	1
36	39	-1	0	0	1
39	40	-1	0	0	1
40	41	-1	0	0	1
30	41	-1	0	0	1
32	39	-1	0	0	1
42	43	-1	3	0	1
43	44	-1	4	0	0
44	45	-1	5	0	0
45	46	-1	6	0	0
46	47	-1	7	0	0
43	26	-1	0	0	1
18	42	-1	1	0	1
11	35	-1	0	0	1
23	47	-1	0	0	0
22	46	-1	0	0	3
1	4	-1	0	0	0
7	16	-1	0	0	0
13	10	-1	0	0	0
34	37	-1	0	0	0
40	31	-1	0	0	0
28	25	-1	0	0	0
52	53	-1	0	0	0
53	54	-1	0	0	0
54	55	-1	0	0	0
52	55	-1	0	0	0
48	49	-1	0	0	0
48	44	-1	0	0	0
49	45	-1	0	0	0
50	51	-1	0	0	0
50	20	-1	0	0	0
51	21	-1	0	0	0
54	49	-1	0	0	0
51	55	-1	0	0	0
23	56	-1	8	0	0
47	57	-1	8	0	0
56	58	-1	9	0	0
57	59	-1	9	0	0
56	57	-1	0	0	0
58	59	-1	1	0	0
[NumArcSegments] = 0
[NumHoles] = 0
[NumBlockLabels] = 21
0.20330598851835432	0.20540293473960494	3	0.030339750073314478	0	0	0	1	0
0.0093774895008016043	0.20540293473960494	1	0.0030339750073314479	0	0	1	1	0
0.14817754017583959	0.20540293473960494	1	0.0030339750073314479	0	0	3	1	0
0.029696769807661311	0.034233822456600824	4	0.0030339750073314479	1	0	11	2181	0
0.051580351419777515	0.23963675719620575	4	0.0030339750073314479	1	0	12	-2181	0
0.029696769807661311	0.10270146736980247	4	0.0030339750073314479	2	0	31	-2181	0
0.051580351419777515	0.30810440210940743	4	0.0030339750073314479	2	0	32	2181	0
0.029696769807661311	0.17116911228300413	4	0.0030339750073314479	3	0	21	2181	0
0.051580351419777515	0.37657204702260905	4	0.0030339750073314479	3	0	22	-2181	0
0.051580351419777515	0.034233822456600824	3	0.0030339750073314479	0	0	0	1	0
0.029696769807661311	0.23963675719620575	3	0.0030339750073314479	0	0	0	1	0
0.051580351419777515	0.10270146736980247	3	0.0030339750073314479	0	0	0	1	0
0.029696769807661311	0.30810440210940743	3	0.0030339750073314479	0	0	0	1	0
0.051580351419777515	0.17116911228300413	3	0.0030339750073314479	0	0	0	1	0
0.029696769807661311	0.37657204702260905	3	0.0030339750073314479	0	0	0	1	0
0.099561894048895289	0.39728279178704706	3	0.0030339750073314479	0	180	3	1	0
0.099561894048895289	0.040910135657443447	3	0.0030339750073314479	0	180	3	1	0
0.099561894048895289	0.2327899927048856	3	0.0030339750073314479	0	0	3	1	0
0.091864001658832101	0.13008852533508311	3	0.0030339750073314479	0	0	0	1	0
0.31593306555236927	0.20540293473960494	3	0.045509625109971717	0	0	2	1	0
0.51303045036189543	0.20540293473960494	3	0	0	0	0	1	0
[Solution]
12666
0	0	0
0.0025008856890334245	0	7.4209662311543963e-13
0	0.003160045149840085	0
0.005001771378066849	0	1.5874142489819493e-12
0.0037513285335501363	0.0027457246561081151	-7.3735536011595718e-14
0	0.00632009029968017	0
0.0026576696370694563	0.0053536290692205168	-7.84676149468951e-13
0.0075026570671002735	0	2.1669918917467793e-12
0.0062522142225835617	0.0044333804163124556	-1.433226859111143e-12
0	0.009480135449520255	0
0.0038875783486092314	0.0079001128746002125	-2.1475026338898597e-12
0.010003542756133698	0	2.9319346282141067e-12
0.0087530999116169853	0.002742820845791142	-4.3971863205118828e-13
0.0066270814056050261	0.0081280046185757335	-3.9567698251335992e-12
0.0087560898452561306	0.006389000676614737	-4.1018303540771731e-12
0	0.012640180599360284	0
0.002741555227614921	0.01106015802444027	-2.1660849907203228e-12
0.0056842706240070049	0.011482527150824193	-4.833782412549041e-12
0.012504428445167123	0	3.4652593506340163e-12
0.011253985600650411	0.0044257481377135517	-3.2240177969158508e-12
0.0081943083086638124	0.010386457956723388	-6.6588950739108784e-12
0.011756923853141789	0.0074324751580639005	-7.7229214767245318e-12
0	0.015800225749200369	0
0.0025781200591477181	0.014220203174280325	-2.5404040798420494e-12
0.0079531422017433233	0.013016762667423389	-7.7822718306892416e-12
0.005601888300372033	0.014220203174280325	-5.6074868857427632e-12
0.015005314134200547	0	4.2382325112062128e-12
0.013754871289683834	0.0021692673285797531	-3.8991539237275987e-13
0.015225918748236278	0.0047329646410748157	-6.4447883350013244e-12
0.010554507847069912	0.012558984619050178	-1.0627791978301619e-11
0.012821269805887419	0.010289137888173629	-1.1934306789261541e-11
0.014804284965557841	0.0073491414238479906	-1.1145393704277301e-11
0	0.018960270899040454	0
0.0040900041797598758	0.018113668919379419	-4.6842380152856756e-12
0.0097302232241492388	0.015495050002413229	-1.0839734184284921e-11
0.0072074273448674798	0.017444740564099014	-8.2720954200985991e-12
0.017506199823233971	0	4.9318534313683761e-12
0.01625575697871726	0.0022913280537717562	-1.2586460797399657e-12
0.017849303873553587	0.0043587902302968801	-7.6610774730949643e-12
0.017424967026281764	0.0069774024062624531	-1.471858398978994e-11
0.013444473772481463	0.013951288791841921	-1.5356866931467637e-11
0.015931813709656475	0.011643905357898873	-1.8264485774587688e-11
0.016181288831348881	0.0098188715563598452	-1.7242406928584305e-11
0.017232972762804891	0.0084015861701881109	-1.775646966244978e-11
0	0.022120316048880487	0
0.0040900041797599478	0.021111579459351729	-5.0055513408628311e-12
0.0069579831299521697	0.021172489710084331	-8.6202911347422611e-12
0.012159651071706809	0.017338363705633082	-1.4688808591628965e-11
0.0094351020869502637	0.019725805573767539	-1.1594987272017553e-11
0.020007085512267396	0	5.2509361565547896e-12
0.02014024779779397	0.002893614950608814	-4.0121302783922794e-12
0.01895255145970072	0.0053399469135081293	-1.1566507944261275e-11
0.020436095726884054	0.0045487291769403578	-9.6696924883994454e-12
0.018855821163373001	0.0068131973752836947	-1.6615130497369511e-11
0.018585548105881953	0.007627327105510737	-1.9423363594307723e-11
0.018074891725530024	0.0081379834858626553	-1.9762200074326555e-11
0.015709734921141187	0.016617287769240478	-1.9735083494255728e-11
0.016770912208948423	0.013283691905468234	-2.059957667694319e-11
0.01760167108615256	0.01086636914956832	-2.1454500014168609e-11
0.017916191687799156	0.0094950675473985495	-2.1418693658207883e-11
0.018088549695835562	0.0086167652273604588	-2.0959380192960197e-11
0	0.025280361198720628	0
0.0025781200591477632	0.023700338623800558	-3.2740209185387177e-12
0.0056018883003721319	0.023700338623800558	-7.1689675430455433e-12
0.0083422790305025529	0.023542782942218878	-1.0746892693346773e-11
0.012085524269600134	0.02000211895910696	-1.5199556533104672e-11
0.014675947431072877	0.020627254686534056	-1.894239504925121e-11
0.022507971201300821	0	5.5348316598247334e-12
0.023222232695213715	0.0031967153000024267	-5.4641901838129124e-12
0.02014875981474341	0.006205342340278819	-1.5527700943096647e-11
0.022855441246096512	0.0066605700092662564	-1.7981103769400705e-11
0.019050792111764445	0.0076485661995334721	-2.0448285950298026e-11
0.019811867840074545	0.0075937521850984327	-2.0912444843707369e-11
0.018566213113205346	0.0081186484931860554	-2.1715331005419461e-11
0.018825795007645453	0.0080563398956721068	-2.2306705329864629e-11
0.018503904515691394	0.0083782303876261642	-2.2458593775834153e-11
0.018754979001603209	0.018118337417268062	-2.462029060432601e-11
0.018754979001603209	0.01489524040940151	-2.4443228857234301e-11
0.018754979001603209	0.011672143401534957	-2.4323184149947743e-11
0.018754979001603209	0.010060594897601683	-2.4290527189067256e-11
0.018505819836686001	0.0088519335196517255	-2.307204356232492e-11
0.018754979001603209	0.0092548206456350458	-2.4280458501303791e-11
0	0.028440406348560709	0
0.002741555227614937	0.026860383773640667	-3.6267571588772847e-12
0.0053178012347597017	0.027403025912902546	-7.0846602591697042e-12
0.0079421034256974467	0.027191976176415132	-1.0591898504508281e-11
0.010761114490589349	0.024840396198782672	-1.4156946531535609e-11
0.013002021649872025	0.022997243769470131	-1.695039498724595e-11
0.018754979001603209	0.021341434425134614	-2.4857234463453159e-11
0.015876864429489233	0.023786892396378101	-2.1054696186513361e-11
0.025008856890334247	0	5.7456697512570471e-12
0.026122790061562321	0.0052552058965041892	-1.2967164528797446e-11
0.026259299734850961	0.0024806084777281704	-2.9980846442270398e-12
0.02092164078755775	0.007406938404540795	-2.0535553755753091e-11
0.024296690410674504	0.0083074143815839233	-2.4164337094061266e-11
0.021596650712181101	0.0083074143815839233	-2.4248064148601579e-11
0.019234115975999368	0.008076696372409051	-2.2924832147169575e-11
0.020246630862934399	0.0083074143815839233	-2.4268042337489698e-11
0.019571620938311045	0.0083074143815839233	-2.427294779863099e-11
0.018754979001603209	0.0083074143815839233	-2.4273474020282552e-11
0.018896611013687694	0.0083074143815839233	-2.4274058748837054e-11
0.018754979001603209	0.0084490463936684069	-2.4274716483286288e-11
0.021322484116195074	0.020106356484769487	-2.474253792102142e-11
0.022589055674008596	0.01755424039783892	-2.4541930087553623e-11
0.023178736247846186	0.01474580318604423	-2.4368770708139386e-11
0.020709470495650407	0.013283691905468234	-2.4360921848932285e-11
0.019952056292825499	0.01086636914956832	-2.4300875919130556e-11
0.019909125900622722	0.0094240019398336393	-2.427869311422753e-11
0	0.031600451498400794	0
0.0025781200591477181	0.030020428923480752	-3.5123192827461976e-12
0.005601888300372033	0.030020428923480752	-7.6371174605318936e-12
0.009178705702568948	0.030597474553551541	-1.2587688016021731e-11
0.012292248313067421	0.028357260612696601	-1.6636976756601866e-11
0.013692280444423659	0.025815650335041528	-1.8271790368427526e-11
0.021203245201184218	0.022952982929067892	-2.4985053037895512e-11
0.018754979001603209	0.02456453143300117	-2.5150769367717574e-11
0.015523120501201389	0.028066849450804038	-2.10531036498403e-11
0.027509742579367672	0	5.8897794455884282e-12
0.026996730109167907	0.0083074143815839233	-2.4034643815697396e-11
0.028957324171833176	0.0050229918170724853	-1.2048669440716766e-11
0.028760185423884383	0.0021858024834127674	-1.8771726339740975e-12
0.021567250200306854	0.010096472278935615	-2.4263859173335837e-11
0.025296361509587858	0.012809129232435079	-2.421205651238377e-11
0.024288936137403187	0.019988208936552745	-2.4671655585860908e-11
0.024134302342309309	0.022952982929067889	-2.4935759905925594e-11
0.026494235608375757	0.016637449230517264	-2.4344793945133377e-11
0	0.034760496648240824	0
0.003469416423300906	0.033180474073320809	-4.8502514519881951e-12
0.0062901187888141467	0.032784406200752021	-8.7657375419785606e-12
0.01142681769379577	0.032094068867265943	-1.5832726600872177e-11
0.0092919172559060015	0.033748155378074303	-1.3025508451808174e-11
0.014270006365860845	0.032125699330154557	-1.9770570304053123e-11
0.016250482384697368	0.030514278265035843	-2.2327489002506616e-11
0.022668773771746767	0.026732351307498368	-2.5346295145584068e-11
0.018754979001603209	0.027787628440867719	-2.5481810933238929e-11
0.030010628268401094	0	5.9725865708779661e-12
0.029696769807661311	0.0083074143815839233	-2.3849411733636676e-11
0.028346749958414609	0.010865528783351182	-2.3986051798912805e-11
0.032396809506154714	0.0083074143815839233	-2.3590696715482486e-11
0.031261071112917808	0.0033552817006498293	-5.9492222223585518e-12
0.033884491256692996	0.005792326908961162	-1.4459098535714858e-11
0.02927720732881238	0.013604278857337782	-2.401433621637674e-11
0.02663042749686155	0.021596753778679648	-2.4729645929463657e-11
0.028184399911842014	0.019072556437654032	-2.4439466392854582e-11
0.025199192181602399	0.025539744834916663	-2.5175043014178899e-11
0.027049956347281849	0.02398028721080106	-2.4955342417792952e-11
0.030116491274298572	0.016615340265929736	-2.4123973680841479e-11
0	0.037920541798080909	0
0.002741555227614937	0.036340519223160866	-3.9411959329207232e-12
0.0049687516021309575	0.037199105648311269	-7.1839004640425646e-12
0.0067384204695008967	0.035597279677747846	-9.5919597749333398e-12
0.012904433199294353	0.035611563133984801	-1.8257109139487016e-11
0.0094448686032673011	0.036647021631587895	-1.352631759339737e-11
0.01574367635379811	0.034557369348433085	-2.2082963855257615e-11
0.018754979001603209	0.031010725448734271	-2.583938504649385e-11
0.018754979001603209	0.034233822456600824	-2.6214035999590907e-11
0.021134369955712922	0.028826927192004369	-2.5588467096683726e-11
0.025316505240236219	0.028979076078066726	-2.55665621366291e-11
0.032511513957434519	0	6.0248365840228425e-12
0.031046789656908012	0.010655161234561094	-2.376037598670812e-11
0.035096849204648117	0.0083074143815839233	-2.3270979808297427e-11
0.035014021848598177	0.011105053183042451	-2.333262009394874e-11
0.03536396711910797	0.0034244949973919786	-5.9721001315154129e-12
0.036538098369226141	0.0066605700092662581	-1.7246779653640993e-11
0.03332802029065797	0.013339117188607133	-2.3626695202703147e-11
0.029467345647043289	0.021744718993242644	-2.4612686326015427e-11
0.031760001762255692	0.020960113733172844	-2.4387532026319491e-11
0.032489930006505539	0.018649468317927059	-2.4105184698887226e-11
0.027792368901420863	0.02658891690239254	-2.5228259658944658e-11
0.029425680862143679	0.024441989612635814	-2.4914322062912402e-11
0.03408450907310985	0.016179817878978462	-2.3731177274744925e-11
0	0.041080586947920994	0
0.0025781200591477181	0.039500564373000951	-3.8191588254965347e-12
0.005601888300372033	0.039500564373000951	-8.2827949295594903e-12
0.0084371696900435479	0.039939174518021765	-1.2444468028944215e-11
0.011147471468611751	0.03899818371731071	-1.6193224230826955e-11
0.015571408580730816	0.038443944164826022	-2.2303284147957065e-11
0.018754979001603209	0.037456919464467373	-2.6586983544068195e-11
0.022538887090003842	0.031010725448734271	-2.5831464445573792e-11
0.021384539863725779	0.035845370960534098	-2.6403931055468911e-11
0.022926590358046277	0.033658427649988186	-2.614638816613406e-11
0.029738923862235644	0.028702621441444552	-2.5441732475994204e-11
0.027574462790615883	0.032018269178756761	-2.5921376033915409e-11
0.035012399646467941	0	6.0566422238629514e-12
0.037796888903141521	0.0083074143815839233	-2.2865685541982755e-11
0.037681672182897655	0.010258126428093459	-2.2909617116300929e-11
0.03601362974238289	0.014145007942465449	-2.3345859208167985e-11
0.038660220344783933	0.013218986226936564	-2.288503062308511e-11
0.03751328533550137	0	6.0812987569434438e-12
0.038083291311079424	0.0055354288224892904	-1.3120792639709908e-11
0.039414829549032408	0.0031790044161515859	-4.828835778593415e-12
0.038471898827764875	0.0074069384045408106	-1.9596213424032227e-11
0.032893031102535553	0.023102103927084804	-2.456084908953609e-11
0.034394052583716056	0.020521590954941292	-2.4125156471058547e-11
0.036677854235956139	0.017564164857374213	-2.3557557557366083e-11
0.031355419238860517	0.026326960314256562	-2.5066422225352249e-11
0	0.044240632097761023	0
0.002741555227614921	0.042660609522841009	-4.2351067898379544e-12
0.005523100554934505	0.043017423799693935	-8.5236111107661972e-12
0.010587388014766847	0.041536221661552401	-1.5742384816063426e-11
0.0083194394546900422	0.042805764654336415	-1.2659999116195546e-11
0.014612641912526527	0.041386972052512606	-2.1364556014458242e-11
0.018754979001603209	0.040680016472333928	-2.6948792399610122e-11
0.022293620116762631	0.039068467968400647	-2.6783369222707135e-11
0.024468640852366774	0.035845370960534098	-2.6412381719522652e-11
0.026590744736220476	0.03439373928226714	-2.623421145297181e-11
0.033217007064187613	0.028069566933343771	-2.523105740611902e-11
0.032088818427298563	0.030356350145606593	-2.5619045498502615e-11
0.03063473228622474	0.033368788643846348	-2.6083903362941239e-11
0.039146908752388229	0.0083074143815839233	-2.262982702561013e-11
0.039484413714699906	0.0095040207653800321	-2.2580595731561179e-11
0.039538711001230228	0.01086636914956832	-2.2608220220789072e-11
0.04063856061371942	0.01489524040940151	-2.2683630787848502e-11
0.04063856061371942	0.011672143401534957	-2.2430985982524476e-11
0.040014171024534792	0	6.0930880110983298e-12
0.039865039334963125	0.0062274822143035501	-1.5281175275554626e-11
0.042515056713568214	0	6.1039519830980154e-12
0.041391620805274656	0.0055429422466406683	-1.2708111166658226e-11
0.04334613717889594	0.0030537615906981014	-4.0722212513563497e-12
0.039581671775248073	0.0075937521850984301	-2.0063767125109129e-11
0.03492489876295584	0.026176079936934445	-2.4861277829566398e-11
0.036466949257276338	0.022204928514020481	-2.414876838315275e-11
0.038176914587281591	0.019957465664445027	-2.3646874408002497e-11
0.04063856061371942	0.018118337417268062	-2.305182499049272e-11
0	0.047400677247601164	0
0.0025781200591477632	0.045820654672681094	-4.2139050310950946e-12
0.0056018883003721319	0.045820654672681094	-9.0509552881900719e-12
0.008237346279979605	0.045463981239042453	-1.3014939410325584e-11
0.012323549388475297	0.043470407217832935	-1.8523945764438705e-11
0.010845772768720841	0.045982600514979384	-1.6959581335518993e-11
0.018754979001603209	0.043903113480200491	-2.728153033194926e-11
0.015069183914723717	0.04444837958369665	-2.2444681406464064e-11
0.021264770715566098	0.041500170122736914	-2.7046926601263321e-11
0.024060125452131431	0.041249376997872338	-2.705229074025364e-11
0.026010691346687272	0.039231408220682468	-2.6843281716668502e-11
0.028587155912856859	0.036013894162831475	-2.6456695966024507e-11
0.036466949257276345	0.028363023247480353	-2.5136771015817907e-11
0.036854652525318769	0.031010725448734271	-2.5598494037680388e-11
0.034126604580043948	0.03319713601189056	-2.6033339243797047e-11
0.031164626053292784	0.035894046715999259	-2.6462958805921282e-11
0.039821918677011583	0.0083074143815839233	-2.2503072877109082e-11
0.04063856061371942	0.010060594897601683	-2.2367768108369675e-11
0.04063856061371942	0.0092548206456350458	-2.2350170341416633e-11
0.042545227821436903	0.012964873096236982	-2.2107475478564308e-11
0.045013902940328275	0.017310051726674634	-2.2076129856798252e-11
0.041595064103772603	0.01086636914956832	-2.2196009637047615e-11
0.041257812626264399	0.0070642764625742961	-1.7933544724934685e-11
0.040337357877107703	0.0075404582238867909	-1.9742886428758013e-11
0.045015942402601643	0	6.1167846954105241e-12
0.042072482792883684	0.0069099789612791255	-1.7252691780428976e-11
0.043433612380619581	0.0062173833572428559	-1.4654697372030542e-11
0.045633720374767511	0.005067609621643366	-1.0402957031831287e-11
0.046266385247118354	0.0026671534174435687	-2.5055517779552253e-12
0.040159423639323261	0.0080766963724090458	-2.1635611776722358e-11
0.038008999751596842	0.026176079936934441	-2.4650070703203741e-11
0.04063856061371942	0.021341434425134614	-2.3536265205814216e-11
0.04063856061371942	0.02456453143300117	-2.4117323672176855e-11
0.043262159865934645	0.019433457664830157	-2.2786954701584984e-11
0	0.050560722397441256	0
0.003469416423300968	0.048980699822521206	-6.0929711007956188e-12
0.0062901187888142474	0.048584631949952412	-1.0770427778566883e-11
0.0098139779743521179	0.04946517770578663	-1.6570047654081572e-11
0.013318699821455822	0.046209862367284943	-2.0457619274035381e-11
0.013561446366511666	0.048681317459437198	-2.14426084370578e-11
0.022359105983465216	0.043903113480200491	-2.7307778442154644e-11
0.018754979001603209	0.047126210488067033	-2.7577907263905322e-11
0.016407937015854746	0.048737758992000307	-2.4946851803680046e-11
0.026567552701830442	0.042069479241567641	-2.7194816337954708e-11
0.026534410484222518	0.044707406590085645	-2.7488295020277775e-11
0.028624364588841818	0.03868401459349885	-2.6817333976100458e-11
0.029094792335328266	0.041312631213542866	-2.7169501596714301e-11
0.04063856061371942	0.027787628440867719	-2.4784191603191796e-11
0.04063856061371942	0.031010725448734271	-2.5471360577033916e-11
0.037283090800745086	0.034340437923981421	-2.6227527368670722e-11
0.033339147177899049	0.037282993660267501	-2.6708592341184469e-11
0.031443078601988181	0.039535969382815464	-2.7002496938593683e-11
0.040496928601634924	0.0083074143815839233	-2.2369801484247354e-11
0.04063856061371942	0.0084490463936684069	-2.2342057101183194e-11
0.041273647325945989	0.0096577077716183644	-2.2224975224905017e-11
0.041286450069271403	0.0089057175734819777	-2.2209234572688087e-11
0.045710110354108914	0.014040640221472646	-2.1446754225104254e-11
0.044482999681373307	0.010931306570960274	-2.1504905529585938e-11
0.048130084957880313	0.017011579446132886	-2.1225124163784208e-11
0.045981920606156773	0.019858143540303526	-2.234015880087321e-11
0.042198154507660401	0.0092973435585122395	-2.2010539292102931e-11
0.041501112468056246	0.0075108376394989011	-1.9419325191684021e-11
0.040807991509440672	0.0078530536957407276	-2.0734604295897082e-11
0.040567744607677175	0.008056339895672112	-2.1485313485193116e-11
0.047516828091635065	0	6.1064490735146542e-12
0.042634993369198272	0.0075191399012774609	-1.9211324052695278e-11
0.04203567094568246	0.0074470676549233429	-1.909314640633546e-11
0.043480232324297298	0.0083074143815839233	-2.1684829107172569e-11
0.046180272022790708	0.0083074143815839233	-2.0918413534743653e-11
0.048075399056333484	0.0055155605620087599	-1.1333390415111808e-11
0.048767270936151783	0.0022129453066304173	-7.71183441526919e-13
0.04428316479914176	0.021989823347444228	-2.311670944279629e-11
0.045014872618495953	0.024864785697362189	-2.3661136553171802e-11
0.044081460280514226	0.027680730699249364	-2.4463011369737661e-11
0	0.053720767547281278	0
0.002741555227614921	0.052140744972361264	-5.4079434518497148e-12
0.0049687516021308777	0.052999331397511708	-9.9697759978904282e-12
0.006738420469500777	0.051397505426948306	-1.2455297559574195e-11
0.012538796175312108	0.051579508597680616	-2.131728578417464e-11
0.009641264000054205	0.052604024376328447	-1.7933134339807407e-11
0.015709734921141329	0.05185035714396137	-2.5042226572410742e-11
0.022572700212496289	0.04740502411114661	-2.7639447755111767e-11
0.018754979001603209	0.050349307495933582	-2.7823036553710678e-11
0.029547728737466254	0.044317165108345942	-2.7560829875314298e-11
0.025858520341874879	0.048634815410180457	-2.7837715336734477e-11
0.027687610294119945	0.046927730611712952	-2.7759538626563317e-11
0.032578821720719763	0.044105385420288724	-2.7690903116091269e-11
0.04281985602442575	0.029821164915187697	-2.5090567846123154e-11
0.04063856061371942	0.034233822456600824	-2.6194316225507332e-11
0.042827224369471596	0.032429375607797746	-2.5731084805146389e-11
0.036685461443376061	0.037653763876526775	-2.6843203546571353e-11
0.04063856061371942	0.037456919464467373	-2.6922203215996165e-11
0.034229201153767208	0.039956387403352327	-2.7166824940774263e-11
0.04063856061371942	0.0083074143815839233	-2.2341404941098692e-11
0.040780192625803895	0.0083074143815839233	-2.231199164306231e-11
0.041117697588115565	0.0083074143815839233	-2.2240964919240619e-11
0.041455202550427242	0.0083074143815839233	-2.21678310372177e-11
0.042130212475050596	0.0083074143815839233	-2.2015779671118826e-11
0.050180334370567417	0.014645960412023063	-2.0139416125198794e-11
0.048880311721284112	0.011425026165319752	-2.0171349218474284e-11