[Format]      =  4.0
[Frequency]   =  0
[Precision]   =  1e-08
[MinAngle]    =  30
[Depth]       =  40
[LengthUnits] =  millimeters
[ProblemType] =  planar
[Coordinates] =  cartesian
[ACSolver]    =  0
[PrevSoln]    = ""
[PrevType]    =  0
[Comment]     =  ""
[PointProps]  =  0
[BdryProps]   = 8
  <BeginBdry>
    <BdryName> = "BOUNDARY_VPOT_0"
    <BdryType> = 0
    <A_0> = 0
    <A_1> = 0
    <A_2> = 0
    <Phi> = 0
    <c0> = 0
    <c0i> = 0
    <c1> = 0
    <c1i> = 0
    <Mu_ssd> = 0
    <Sigma_ssd> = 0
    <innerangle> = 0
    <outerangle> = 0
  <EndBdry>
  <BeginBdry>
    <BdryName> = "BOUNDARY_NEGPER_0"
    <BdryType> = 5
    <A_0> = 0
    <A_1> = 0
    <A_2> = 0
    <Phi> = 0
    <c0> = 0
    <c0i> = 0
    <c1> = 0
    <c1i> = 0
    <Mu_ssd> = 0
    <Sigma_ssd> = 0
    <innerangle> = 0
    <outerangle> = 0
  <EndBdry>
  <BeginBdry>
    <BdryName> = "BOUNDARY_NEGPER_1"
    <BdryType> = 5
    <A_0> = 0
    <A_1> = 0
    <A_2> = 0
    <Phi> = 0
    <c0> = 0
    <c0i> = 0
    <c1> = 0
    <c1i> = 0
    <Mu_ssd> = 0
    <Sigma_ssd> = 0
    <innerangle> = 0
    <outerangle> = 0
  <EndBdry>
  <BeginBdry>
    <BdryName> = "BOUNDARY_NEGPER_2"
    <BdryType> = 5
    <A_0> = 0
    <A_1> = 0
    <A_2> = 0
    <Phi> = 0
    <c0> = 0
    <c0i> = 0
    <c1> = 0
    <c1i> = 0
    <Mu_ssd> = 0
    <Sigma_ssd> = 0
    <innerangle> = 0
    <outerangle> = 0
  <EndBdry>
  <BeginBdry>
    <BdryName> = "BOUNDARY_NEGPER_3"
    <BdryType> = 5
    <A_0> = 0
    <A_1> = 0
    <A_2> = 0
    <Phi> = 0
    <c0> = 0
    <c0i> = 0
    <c1> = 0
    <c1i> = 0
    <Mu_ssd> = 0
    <Sigma_ssd> = 0
    <innerangle> = 0
    <outerangle> = 0
  <EndBdry>
  <BeginBdry>
    <BdryName> = "BOUNDARY_NEGPER_4"
    <BdryType> = 5
    <A_0> = 0
    <A_1> = 0
    <A_2> = 0
    <Phi> = 0
    <c0> = 0
    <c0i> = 0
    <c1> = 0
    <c1i> = 0
    <Mu_ssd> = 0
    <Sigma_ssd> = 0
    <innerangle> = 0
    <outerangle> = 0
  <EndBdry>
  <BeginBdry>
    <BdryName> = "BOUNDARY_NEGPER_5"
    <BdryType> = 5
    <A_0> = 0
    <A_1> = 0
    <A_2> = 0
    <Phi> = 0
    <c0> = 0
    <c0i> = 0
    <c1> = 0
    <c1i> = 0
    <Mu_ssd> = 0
    <Sigma_ssd> = 0
    <innerangle> = 0
    <outerangle> = 0
  <EndBdry>
  <BeginBdry>
    <BdryName> = "BOUNDARY_L"
    <BdryType> = 5
    <A_0> = 0
    <A_1> = 0
    <A_2> = 0
    <Phi> = 0
    <c0> = 0
    <c0i> = 0
    <c1> = 0
    <c1i> = 0
    <Mu_ssd> = 0
    <Sigma_ssd> = 0
    <innerangle> = 0
    <outerangle> = 0
  <EndBdry>
[BlockProps]  = 3
  <BeginBlock>
    <BlockName> = "air"
    <Mu_x> = 1
    <Mu_y> = 1
    <H_c> = 0
    <H_cAngle> = 0
    <J_re> = 0
    <J_im> = 0
    <Sigma> = 0
    <d_lam> = 0
    <Phi_h> = 0
    <Phi_hx> = 0
    <Phi_hy> = 0
    <LamType> = 0
    <LamFill> = 1
    <NStrands> = 0
    <WireD> = 0
    <BHPoints> = 0
  <EndBlock>
  <BeginBlock>
    <BlockName> = "M400-50A_VOEST"
    <Mu_x> = 1
    <Mu_y> = 1
    <H_c> = 0
    <H_cAngle> = 0
    <J_re> = 0
    <J_im> = 0
    <Sigma> = 2.0832999999999999
    <d_lam> = 0
    <Phi_h> = 0
    <Phi_hx> = 0
    <Phi_hy> = 0
    <LamType> = 0
    <LamFill> = 1
    <NStrands> = 0
    <WireD> = 0
    <BHPoints> = 50
      0	0
      0.055	36
      0.11	62
      0.16500000000000001	82
      0.22	101
      0.27500000000000002	119
      0.33000000000000002	137
      0.38500000000000001	156
      0.44	175
      0.495	196
      0.55000000000000004	218
      0.60499999999999998	242
      0.66000000000000003	267
      0.71499999999999997	293
      0.77000000000000002	320
      0.82499999999999996	349
      0.88	380
      0.93600000000000005	411
      0.99099999999999999	444
      1.046	478
      1.101	513
      1.1559999999999999	550
      1.2110000000000001	587
      1.266	626
      1.321	668
      1.3759999999999999	716
      1.431	843
      1.486	1210
      1.5409999999999999	1870
      1.5960000000000001	2989
      1.651	4541
      1.706	6522
      1.7609999999999999	8930
      1.8160000000000001	11950
      1.871	15783
      1.9259999999999999	20777
      1.9810000000000001	28565
      2.036	41522
      2.0910000000000002	61916
      2.1459999999999999	90243
      2.2010000000000001	124700
      2.2559999999999998	162721
      2.3109999999999999	202726
      2.3660000000000001	243894
      2.4209999999999998	285808
      2.476	328186
      2.5310000000000001	370853
      2.5859999999999999	413750
      2.641	456851
      2.6960000000000002	500000
  <EndBlock>
  <BeginBlock>
    <BlockName> = "N40SH"
    <Mu_x> = 1.0283762480294274
    <Mu_y> = 1.0283762480294274
    <H_c> = 842264.13843203883
    <H_cAngle> = 0
    <J_re> = 0
    <J_im> = 0
    <Sigma> = 0
    <d_lam> = 0
    <Phi_h> = 0
    <Phi_hx> = 0
    <Phi_hy> = 0
    <LamType> = 0
    <LamFill> = 1
    <NStrands> = 0
    <WireD> = 0
    <BHPoints> = 0
  <EndBlock>
[CircuitProps]  = 3
  <BeginCircuit>
    <CircuitName> = "Stator_1_1"
    <TotalAmps_re> = 0
    <TotalAmps_im> = 0
    <CircuitType> = 1
  <EndCircuit>
  <BeginCircuit>
    <CircuitName> = "Stator_1_2"
    <TotalAmps_re> = 0
    <TotalAmps_im> = 0
    <CircuitType> = 1
  <EndCircuit>
  <BeginCircuit>
    <CircuitName> = "Stator_1_3"
    <TotalAmps_re> = 0
    <TotalAmps_im> = 0
    <CircuitType> = 1
  <EndCircuit>
[NumPoints] = 218
3.7257682594658998	20.623255098959433	0	100
3.7866860796545652	19.460873845221062	0	100
-5.8610752741780079	20.120829919027173	0	100
-5.8001574539893426	18.958448665288802	0	100
-5.7616369573164148	18.223433802993487	0	100
3.8252065763274929	18.725858982925747	0	100
-9.1078353624289843	18.874515490808388	0	100
-8.3753212521255147	17.969935898840053	0	100
-16.56843659244154	12.833039736636223	0	100
-15.8359224820734	11.928460144771416	0	100
-15.372727849403256	11.356462409882678	0	100
-7.9121266194254138	17.39793816395289	0	100
-18.462555439785334	9.9163524863143575	0	100
-17.338240532325528	9.6150932147529282	0	100
-20.947218272768126	0.64346455390280122	0	100
-19.822903365310932	0.34220528239130132	0	100
-19.111959202879731	0.151708368207227	0	100
-16.627296369897458	9.4245963006287692	0	100
-20.765206858339617	-2.8295201235342771	0	100
-19.678541234280718	-2.4123882723279806	0	100
-17.324874542702318	-11.791892217943863	0	100
-16.238208918646038	-11.374760366687635	0	100
-15.551071732417695	-11.110993113823357	0	100
-18.991404048055522	-2.1486210194037847	0	100
-15.136255040480698	-14.494612217971294	0	100
-14.50230803369428	-13.518419433479794	0	100
-7.0850175881693378	-19.72314695420609	0	100
-6.4510705814580573	-18.746954169618387	0	100
-6.0502034216410765	-18.129672875022077	0	100
-14.10144087390726	-12.901138138885052	0	100
-8.2174190083292338	-20.623142942859211	0	100
-6.2272882151692084	-21.308704359610157	0	100
-8.343388206304553	-20.43734886235897	0	100
-8.2279118586526945	-20.256087304951642	0	100
-5.6018412437039213	-18.974504484856084	0	100
-8.1349524546777694	21.192275681451967	0	100
-1.2141941848346942	23.168205206276156	0	100
-14.600233072339167	18.029786305772689	0	100
-0.37278009358593506	23.190238409676802	0	100
5.8751923238044306	21.926516256738374	0	0
-19.037821892342237	12.363306094807783	0	100
-22.409479169875461	6.0046018463702042	0	100
-22.95729546991495	1.8435239323273864	0	100
-22.668890438893904	-1.1880262067255125	0	100
-22.726904701749557	-2.5525938066271703	0	100
-21.659065894705194	-8.3141364294395004	0	100
-17.641213325038702	-14.285572876819431	0	100
-12.635625612334696	-19.457157176303177	0	100
-5.875192323809773	-21.926516256728124	0	0
-7.4869601730945803	20.899412129681114	0	100
-5.4739476500922803	21.514550823194423	0	100
-5.2497088651295716	21.223764116899073	0	100
-5.2246328065574508	21.32072604094834	0	100
-6.620949139807065	18.643376256849717	0	100
3.0024629627845045	21.656242116708832	0	100
2.9662933716434603	21.770957403932396	0	100
3.1950778568401139	21.968875198513793	0	100
5.2613623888175187	21.567523404723666	0	100
4.6359154174087021	19.23332352998337	0	100
-18.341444247658359	12.507254811117463	0	100
-17.074452358821492	14.188131541768138	0	100
-16.920628463753808	14.260310536748381	0	100
-16.722119233425545	14.084684405429412	0	100
-16.314761989736162	11.191111963695041	0	100
-10.300176174389913	19.285071356792564	0	100
-10.435062543500958	19.474175071898923	0	100
-10.328108566624964	19.651213027097256	0	100
-8.4205405996914937	20.541044180109775	0	100
-7.554529566307794	18.285008307279142	0	100
-22.19999999999634	-8.4850100700152279e-14	0	100
-22.153096605761242	1.4423282482317872	0	100
-22.190120022367424	-0.66224873934650641	0	100
-21.953519158897297	1.6293342998834077	0	100
-21.807248418573462	1.5657339718959076	0	100
-19.776890277917296	-0.53577672759105277	0	100
-19.668498103091654	9.5476588139919336	0	100
-19.926972444018638	9.7389197652303228	0	100
-19.906308557146559	9.82745539945841	0	100
-19.726972444018639	9.5389197652303235	0	100
-18.886083282722861	11.668584243082114	0	100
-16.859401024662766	10.352441395829301	0	100
8.5725275940314722e-16	14	0	100
3.6234666314352904	13.522961568046957	0	100
-14	1.7145055188062944e-15	0	100
-3.623466631435289	-13.522961568046957	0	100
-18.770010905372281	-11.854395413194499	0	100
-17.562924162983862	-13.578795780386375	0	100
-18.800911707956615	-11.747599058253014	0	100
-18.562749908881308	-11.551273621563482	0	100
-15.684918671646946	-12.058016919390232	0	100
-21.524122264061848	-3.8366348826657974	0	100
-21.88097526937495	-3.7500561678332125	0	100
-21.683849366047685	-3.9162718780314538	0	100
-22.137784066119153	-1.6608782742027139	0	100
-19.724554321674354	-1.5344062623456265	0	100
-15.158263298140422	-15.75546445665389	0	100
-15.497853135641108	-15.895173738725719	0	100
-15.358232837122486	-15.951973975312608	0	100
-16.933603771865183	-14.355941741919427	0	100
-15.055598280693376	-12.835162880777196	0	100
4.2862637970157361e-16	7	0	100
1.8117333157176452	6.7614807840234787	0	100
-7	8.5725275940314722e-16	0	100
-1.8117333157176445	-6.7614807840234787	0	100
5.4991558955000004	24.386832505899999	0	200
6.4650817217880396	24.128013460797845	0	200
8.7092608676930467	32.503404054601866	0	200
5.2403368503799985	23.420906679600375	0	200
6.2116570824604969	23.18221983093764	0	0
-7.4310075480700002	23.869194415700001	0	200
-6.4650817217799998	24.128013460799998	0	200
-8.7092608676999994	32.503404054599997	0	200
-7.1721885028634542	22.903268589426123	0	200
-5.2403368505026231	23.420906679572937	0	200
-18.370038520200001	16.955824957800001	0	200
-17.662931739000001	17.662931739000001	0	200
-23.794143186900001	23.794143186900001	0	200
-17.662931738923486	16.248718176709488	0	200
-16.248718176709477	17.662931738923497	0	200
-24.386832505899999	5.4991558955000004	0	200
-24.128013460799998	6.4650817217799998	0	200
-32.503404054599997	8.7092608676999994	0	200
-23.420906679572937	5.2403368505026329	0	200
-22.903268589426123	7.1721885028634533	0	200
-24.386832505899999	-5.4991558955000004	0	200
-24.128013460799998	-6.4650817217799998	0	200
-32.503404054599997	-8.7092608676999994	0	200
-23.420906679572937	-5.2403368505026275	0	200
-22.903268589426126	-7.172188502863448	0	200
-18.370038520200001	-16.955824957800001	0	200
-17.662931739000001	-17.662931739000001	0	200
-23.794143186900001	-23.794143186900001	0	200
-17.66293173892349	-16.248718176709485	0	200
-16.248718176709481	-17.662931738923493	0	200
-7.4310075480700002	-23.869194415700001	0	200
-6.465081721788037	-24.128013460797845	0	200
-8.7092608676930432	-32.503404054601866	0	200
-7.1721885028634649	-22.903268589426119	0	200
-6.2116570824604951	-23.18221983093764	0	0
2.2962127484012872e-15	37.5	0	200
9.7057141913445282	36.222218485840067	0	200
-37.5	4.5924254968025744e-15	0	200
-9.7057141913445246	-36.222218485840067	0	200
3.2464777947979884	33.493027362838575	0	200
3.1499999999999999	33.497692225800002	0	200
2.1499999999999999	32.497692225800002	0	200
2.1499999999999999	27.252503761100002	0	200
2.5764235636489534	26.433351716811011	0	200
-9.4106094823231766e-15	23.99999999999995	0	200
-5.4991558955000004	24.386832505899999	0	200
-2.5764235636500001	26.433351716800001	0	200
-2.1499999999999999	27.252503761100002	0	200
-2.1499999999999999	32.497692225800002	0	200
-3.1499999999999999	33.497692225800002	0	200
-3.2464777947934058	33.493027362882884	0	200
-13.934981438088334	30.629051443361941	0	200
-14.520866091	29.718827031899998	0	200
-14.38689149478444	29.218827031899998	0	200
-11.7642972624	24.6763605738	0	200
-10.985427601347658	24.180165875708255	0	200
-16.955824957800001	18.370038520200001	0	200
-15.447924115399999	21.6037423121	0	200
-15.3542319025	22.026360573800002	0	200
-15.488206498715561	22.526360573800002	0	200
-18.110800731000001	27.0688270319	0	200
-18.9768261348	27.5688270319	0	200
-19.558045924539314	27.382573648492283	0	200
-27.382573648330073	19.558045924727708	0	200
-27.5688270319	18.9768261348	0	200
-27.0688270319	18.110800731015562	0	200
-22.526360573800002	15.4882064987	0	200
-22.026360573800002	15.3542319025	0	200
-21.603742312059303	15.447924115463351	0	200
-23.869194415700001	7.4310075480700002	0	200
-24.1801658758	10.9854276014	0	200
-24.6763605738	11.764297262384439	0	200
-29.218827031899998	14.3868914947	0	200
-29.718827031899998	14.520866091	0	200
-30.629051443292635	13.934981438342895	0	200
-33.493027362815887	3.24647779503182	0	200
-33.497692225800002	3.1499999999999999	0	200
-32.497692225800002	2.1499999999999999	0	200
-27.252503761100002	2.1499999999999999	0	200
-26.433351716811011	2.5764235636489534	0	200
-23.999999999999957	5.825732181983648e-15	0	200
-26.433351716800001	-2.5764235636500001	0	200
-27.252503761100002	-2.1499999999999999	0	200
-32.497692225800002	-2.1499999999999999	0	200
-33.497692225800002	-3.1499999999999999	0	200
-33.493027362882209	-3.2464777948003545	0	200
-30.629051443361938	-13.934981438088334	0	200
-29.718827031899998	-14.520866091	0	200
-29.218827031899998	-14.38689149478444	0	200
-24.6763605738	-11.7642972624	0	200
-24.180165875708255	-10.985427601347658	0	200
-23.869194415700001	-7.4310075480700002	0	200
-21.6037423121	-15.447924115399999	0	200
-22.026360573800002	-15.3542319025	0	200
-22.526360573800002	-15.488206498715561	0	200
-27.0688270319	-18.110800731000001	0	200
-27.5688270319	-18.9768261348	0	200
-27.382573648492283	-19.558045924539314	0	200
-19.558045924727622	-27.382573648330006	0	200
-18.9768261348	-27.5688270319	0	200
-18.110800731015562	-27.0688270319	0	200
-15.4882064987	-22.526360573800002	0	200
-15.3542319025	-22.026360573800002	0	200
-15.447924115463351	-21.603742312059303	0	200
-16.955824957800001	-18.370038520200001	0	200
-10.9854276014	-24.1801658758	0	200
-11.764297262384439	-24.6763605738	0	200
-14.3868914947	-29.218827031899998	0	200
-14.520866091	-29.718827031899998	0	200
-13.934981438342897	-30.629051443292635	0	200
2.7554552980815448e-15	45	0	200
11.646857029613432	43.466662183008076	0	200
-45	5.5109105961630896e-15	0	200
-11.646857029613429	-43.466662183008076	0	200
[NumSegments] = 127
0	1	0.57969038672681061	0	0	100
2	0	0.56181309310207972	0	0	100
2	3	0.5796903867268105	0	0	100
4	5	0.67831461485628319	0	0	100
6	7	0.57969038672599127	0	0	100
8	6	0.56181309310107574	0	0	100
8	9	0.57969038672834894	0	0	100
10	11	0.67831461485834732	0	0	100
12	13	0.57969038672704998	0	0	100
14	12	0.56181309310288419	0	0	100
15	16	0.63707061612786653	0	0	100
16	17	0.67831461485335631	0	0	100
18	19	0.57969038672723483	0	0	100
18	20	0.56181309310288441	0	0	100
21	22	0.6370706161277564	0	0	100
23	22	0.67831461485335609	0	0	100
24	25	0.57969038672834894	0	0	100
24	26	0.56181309310107574	0	0	100
27	28	0.63707061613109206	0	0	100
29	28	0.67831461485834732	0	0	100
31	34	0.54230476850410514	0	0	100
49	53	0.54230476850360432	0	0	100
2	51	0.51642336181878479	0	0	100
53	3	0.61632088348718095	0	0	100
3	4	0.63707061612933713	0	0	100
54	0	0.51642336181735471	0	0	100
1	5	0.63707061612933724	0	0	100
1	58	0.61632088348718095	0	0	100
58	57	0.54230476850360498	0	0	100
59	63	0.54230476850384834	0	0	100
62	8	0.51642336181960213	0	0	100
63	9	0.61632088348917935	0	0	100
9	10	0.63707061613166749	0	0	100
64	6	0.51642336181621573	0	0	100
7	11	0.63707061613109206	0	0	100
7	68	0.61632088348845904	0	0	100
67	68	0.54230476850395093	0	0	100
71	74	0.54230476850337483	0	0	100
73	14	0.51642336181820625	0	0	100
15	74	0.61632088348677094	0	0	100
14	15	0.57969038672723494	0	0	100
75	12	0.51642336181789106	0	0	100
13	17	0.6370706161277564	0	0	100
13	80	0.61632088348893865	0	0	100
79	80	0.54230476850503928	0	0	100
86	89	0.5423047685048199	0	0	100
88	20	0.5164233618177454	0	0	100
21	89	0.61632088348893865	0	0	100
20	21	0.57969038672705009	0	0	100
90	18	0.51642336181746118	0	0	100
19	23	0.63707061612786631	0	0	100
94	19	0.61632088348677061	0	0	100
93	94	0.54230476850337461	0	0	100
33	26	0.51642336181655257	0	0	100
27	34	0.61632088348845893	0	0	100
26	27	0.57969038672599116	0	0	100
95	24	0.51642336181733473	0	0	100
25	29	0.63707061613166749	0	0	100
99	25	0.61632088348917935	0	0	100
98	99	0.54230476850403719	0	0	100
101	82	1.1951711182135083	2	0	0
82	39	0.70670657929754954	3	0	0
103	84	1.1951711182135083	2	0	0
84	48	0.70670657929781455	3	0	0
104	105	0.53176892481150562	0	0	200
105	106	1.0269520221571575	5	0	0
109	110	0.53176892481164706	0	0	200
111	110	1.0269520221571571	0	0	200
114	115	0.53176892480995952	0	0	200
116	115	1.0269520221556512	0	0	200
119	120	0.53176892481151028	0	0	200
121	120	1.0269520221571571	0	0	200
124	125	0.53176892481151028	0	0	200
126	125	1.0269520221571571	0	0	200
129	130	0.53176892480995952	0	0	200
131	130	1.0269520221556512	0	0	200
134	135	0.53176892481165183	0	0	200
136	135	1.0269520221571573	5	0	0
145	146	1.099958727529363	0	0	200
147	104	0.61955302156331182	0	0	200
107	104	0.47603885351262287	0	0	200
149	113	0.47603885351262587	0	0	200
149	150	0.61955302156269498	0	0	200
152	151	1.099958727529363	0	0	200
157	158	1.0999587275267526	0	0	200
159	109	0.61955302156050229	0	0	200
109	112	0.47603885351276798	0	0	200
160	118	0.47603885351188513	0	0	200
160	161	0.61955302156128922	0	0	200
164	163	1.0999587275265577	0	0	200
169	170	1.0999587275265532	0	0	200
172	114	0.61955302156163339	0	0	200
114	117	0.47603885351188513	0	0	200
173	123	0.47603885351276776	0	0	200
174	173	0.61955302156649728	0	0	200
176	175	1.0999587275242453	0	0	200
181	182	1.099958727529363	0	0	200
183	119	0.61955302156331182	0	0	200
119	122	0.47603885351262598	0	0	200
124	127	0.47603885351262587	0	0	200
185	124	0.61955302156269498	0	0	200
187	186	1.099958727529363	0	0	200
192	193	1.0999587275267526	0	0	200
194	195	0.61955302156050229	0	0	200
195	128	0.47603885351276776	0	0	200
129	132	0.47603885351188469	0	0	200
196	129	0.61955302156128922	0	0	200
199	198	1.0999587275265577	0	0	200
204	205	1.0999587275265532	0	0	200
208	207	0.61955302156163328	0	0	200
208	133	0.47603885351188469	0	0	200
134	137	0.47603885351276776	0	0	200
209	134	0.61955302156649728	0	0	200
211	210	1.0999587275242453	0	0	200
120	173	0.53176892481164706	0	0	200
125	195	0.53176892481164706	0	0	200
115	160	0.53176892480995952	0	0	200
130	208	0.53176892480995952	0	0	200
110	149	0.53176892481151017	0	0	200
108	105	0.47489468347922653	4	0	0
106	140	1.7432445531640615	6	0	0
140	215	2.3925555162755603	7	0	0
138	135	0.47489468347922653	4	0	0
136	142	1.743244553164061	6	0	0
142	217	2.3925555162755598	7	0	0
108	39	-1	8	0	0
138	48	-1	8	0	0
[NumArcSegments] = 124
30	31	5.4345611430000558	1.21	0	0	100	1.21
33	32	64.999999999999829	10	0	0	100	10
32	30	68.27488420240752	10	0	0	100	10
36	35	25.869334195324974	1.47	0	0	100	1.47
35	37	25.869334195238149	1.47	0	0	100	1.47
39	38	22.869399115251312	1.48	0	0	100	1.48
38	36	3.0040108154166485	1.4399999999999999	0	0	100	1.4399999999999999
37	40	25.869334195324974	1.47	0	0	100	1.47
40	41	25.869334195246275	1.47	0	0	100	1.47
41	42	15.000784973196787	1.45	0	0	100	1.45
42	43	10.869995843772903	1.51	0	0	100	1.51
43	44	4.8713690388208466	1.53	0	0	100	1.53
44	45	21.000547943209209	1.46	0	0	100	1.46
45	46	25.86933419532491	1.47	0	0	100	1.47
46	47	25.869334195251305	1.47	0	0	100	1.47
47	48	25.869334195324942	1.47	0	0	100	1.47
50	49	5.4345611430000558	1.21	0	0	100	1.21
51	52	28.999999999999797	10	0	0	100	10
52	50	104.27488420078892	10	0	0	100	10
56	55	98.274884248400056	10	0	0	100	10
55	54	34.999999999421775	10	0	0	100	10
57	56	5.4345611430419671	1.21	0	0	100	1.21
60	59	5.4345611430001233	1.21	0	0	100	1.21
62	61	82.999999999999886	10	0	0	100	10
61	60	50.274884196231852	10	0	0	100	10
66	65	62.274884248000099	10	0	0	100	10
65	64	71.000000000750759	10	0	0	100	10
67	66	5.4345611425375582	1.21	0	0	100	1.21
70	69	3.7251157519999736	1.21	0	0	100	1.21
69	71	1.7094453910000447	1.21	0	0	100	1.21
73	72	46.999999999999979	10	0	0	100	10
72	70	86.274884200312187	10	0	0	100	10
77	76	26.274884248000347	10	0	0	100	10
76	78	90	10	0	0	100	10
78	75	16.999999955141387	10	0	0	100	10
79	77	5.4345611421115319	1.21	0	0	100	1.21
82	81	14.99999999999997	4	0	0	100	4
81	83	90	4	0	0	100	4
83	84	75.000000000000014	4	0	0	100	4
85	86	5.4345611430000558	1.21	0	0	100	1.21
88	87	100.99999999999962	10	0	0	100	10
87	85	32.274884210447865	10	0	0	100	10
91	92	80.274884248000021	10	0	0	100	10
92	90	52.999999998588763	10	0	0	100	10
93	91	5.4345611419159479	1.21	0	0	100	1.21
96	97	44.274884248000404	10	0	0	100	10
97	95	88.999999984578196	10	0	0	100	10
98	96	5.4345611436895709	1.21	0	0	100	1.21
101	100	14.99999999999997	10	1	0	100	7.5
100	102	90	10	1	0	100	10
102	103	75.000000000000014	10	1	0	100	9.4000000000000004
108	107	2.3880154632999928	1	0	0	200	1
113	112	4.7760309259999971	1	0	0	200	1
118	117	4.7760309259999971	1	0	0	200	1
123	122	4.7760309259999971	1	0	0	200	1
127	128	4.7760309259998444	1	0	0	200	1
132	133	4.7760309259999971	1	0	0	200	1
137	138	2.3880154630001553	1	0	0	200	1
140	139	14.99999999999997	3	0	0	200	3
139	141	90	3	0	0	200	3
141	142	75.000000000000014	3	0	0	200	3
106	143	9.4636180406626877	2.5899999999999999	0	0	200	2.5899999999999999
143	144	5.5363819859144572	10	0	0	200	10
144	145	90	10	0	0	200	10
146	147	54.999999999999979	10	0	0	200	10
107	148	12.611984536699449	1	0	0	200	1
148	113	12.61198453699949	1	0	0	200	1
150	151	55.000000000073186	10	0	0	200	10
152	153	90	10	0	0	200	10
153	154	5.5363819596001731	10	0	0	200	10
111	155	9.463618040251939	2.5899999999999999	0	0	200	2.5899999999999999
155	156	65.536381976023847	10	0	0	200	10
156	157	29.999999999999929	10	0	0	200	10
158	159	54.99999999990515	10	0	0	200	10
112	118	25.223969073999076	1	0	0	200	1
161	162	24.999999991411272	10	0	0	200	10
162	163	29.999999999999929	10	0	0	200	10
164	165	60.000000000000007	10	0	0	200	10
165	166	35.53638195999995	10	0	0	200	10
116	167	9.4636180403914469	2.5899999999999999	0	0	200	2.5899999999999999
167	168	35.536381975990352	10	0	0	200	10
168	169	60.000000000000007	10	0	0	200	10
170	171	29.999999998216783	10	0	0	200	10
171	172	25.00000000000011	10	0	0	200	10
117	123	25.223969073998667	1	0	0	200	1
174	175	55.000000000037993	10	0	0	200	10
176	177	30.00000000967594	10	0	0	200	10
177	178	65.536381960000028	10	0	0	200	10
121	179	9.4636180402747634	2.5899999999999999	0	0	200	2.5899999999999999
179	180	5.5363819993880794	10	0	0	200	10
180	181	90	10	0	0	200	10
182	183	54.999999999999979	10	0	0	200	10
122	184	12.61198453699952	1	0	0	200	1
184	127	12.61198453699952	1	0	0	200	1
185	186	55.000000000073186	10	0	0	200	10
187	188	90	10	0	0	200	10
188	189	5.5363819600010471	10	0	0	200	10
189	126	9.4636180402349925	2.5899999999999999	0	0	200	2.5899999999999999
190	191	65.536381976023847	10	0	0	200	10
191	192	29.999999999999929	10	0	0	200	10
193	194	54.99999999990515	10	0	0	200	10
128	132	25.223969073999044	1	0	0	200	1
196	197	24.999999991411272	10	0	0	200	10
197	198	29.999999999999929	10	0	0	200	10
199	200	60.000000000000007	10	0	0	200	10
200	201	35.53638195999995	10	0	0	200	10
201	131	9.4636180405809398	2.5899999999999999	0	0	200	2.5899999999999999
202	203	35.536381975997003	10	0	0	200	10
203	204	60.000000000000007	10	0	0	200	10
205	206	29.999999998216783	10	0	0	200	10
206	207	25.00000000000011	10	0	0	200	10
133	137	25.223969073999655	1	0	0	200	1
209	210	55.000000000037993	10	0	0	200	10
211	212	30.00000000967594	10	0	0	200	10
212	213	65.536381959999929	10	0	0	200	10
213	136	9.4636180402719408	2.5899999999999999	0	0	200	2.5899999999999999
178	121	9.4636180402596377	2.5899999999999999	0	0	200	2.5899999999999999
126	190	9.463618040251939	2.5899999999999999	0	0	200	2.5899999999999999
166	116	9.4636180405831851	2.5899999999999999	0	0	200	2.5899999999999999
131	202	9.4636180403903243	2.5899999999999999	0	0	200	2.5899999999999999
154	111	9.4636180402469083	2.5899999999999999	0	0	200	2.5899999999999999
215	214	14.999999999999996	3.5899999999999999	1	0	200	3
214	216	90	3.5899999999999999	1	0	200	3.5
216	217	75.000000000000014	3.5899999999999999	1	0	200	3.6000000000000001
[NumHoles] = 0
[NumBlockLabels] = 20
-0.85045899999999996	16.227730000000001	2	0.83737899999999998	0	0	120	1	0
-1.0179339999999999	19.423344	3	0.63825900000000002	0	93.000000000000014	130	1	0
-18.787257	5.0340299999999996	3	0.63825900000000002	0	164.99999999981043	130	1	0
-12.240282000000001	15.115489	3	0.63825900000000002	0	-51.000000000494857	130	1	0
-10.593228999999999	-16.312142999999999	3	0.63825900000000002	0	-122.99999999950504	130	1	0
-18.158138999999998	-6.9702570000000001	3	0.63825900000000002	0	20.999999999644643	130	1	0
0	33.649999999999999	2	1.5229940000000002	0	0	220	1	0
6.6212454684499997	28.574527802799999	1	1.0289029756909271	1	0	251	-1	0
-6.6212454684524724	28.57452780280488	1	1.0289029756915347	1	0	251	1	0
-8.5530971210297011	28.05688971259454	1	1.0289029756909271	1	0	251	1	0
-20.021430681774877	21.435644244147529	1	1.0289029756915347	1	0	251	-1	0
-21.435644244144537	20.021430681770298	1	1.0289029756909271	2	0	251	1	0
-28.0568897126	8.5530971210300013	1	1.0289029756915347	2	0	251	-1	0
-28.574527802799999	6.6212454684500015	1	1.0289029756909271	2	0	251	-1	0
-28.57452780280488	-6.6212454684524671	1	1.0289029756915347	2	0	251	1	0
-28.05688971259454	-8.5530971210296958	1	1.0289029756909271	3	0	251	-1	0
-21.435644244147525	-20.021430681774881	1	1.0289029756915347	3	0	251	1	0
-20.021430681770294	-21.435644244144541	1	1.0289029756909271	3	0	251	1	0
-8.5530971210300031	-28.0568897126	1	1.0289029756915347	3	0	251	-1	0
49.5	49.5	1	-1	0	0	0	1	3
