[Format]      =  4.0
[Frequency]   =  0
[Precision]   =  1e-08
[MinAngle]    =  30
[Depth]       =  1
[LengthUnits] =  inches
[ProblemType] =  planar
[Coordinates] =  cartesian
[ACSolver]    =  0
[Comment]     =  ""
[PointProps]  =  0
[BdryProps]   = 0
[BlockProps]  = 1
  <BeginBlock>
    <BlockName> = "Air"
    <Mu_x> = 1
    <Mu_y> = 1
    <H_c> = 0
    <H_cAngle> = 0
    <J_re> = 0
    <J_im> = 0
    <Sigma> = 0
    <d_lam> = 0
    <Phi_h> = 0
    <Phi_hx> = 0
    <Phi_hy> = 0
    <LamType> = 0
    <LamFill> = 1
    <NStrands> = 0
    <WireD> = 0
    <BHPoints> = 0
  <EndBlock>
[CircuitProps]  = 0
[NumPoints] = 0
[NumSegments] = 0
[NumArcSegments] = 0
[NumHoles] = 0
[NumBlockLabels] = 0
